@<TRIPOS>MOLECULE
*****
 33 37 0 0 0
SMALL
GASTEIGER

@<TRIPOS>ATOM
      1 N         139.5508  138.1119  163.9117 N.3     1  UNL1       -0.2726
      2 C         139.2286  139.2661  164.8139 C.3     1  UNL1        0.0724
      3 C         140.2613  139.7792  165.7732 C.3     1  UNL1        0.0214
      4 C         141.6162  139.1380  165.8304 C.3     1  UNL1        0.0216
      5 C         142.9710  138.4968  165.8875 C.3     1  UNL1        0.0058
      6 C         141.9384  137.9838  164.9282 C.3     1  UNL1        0.0201
      7 C         140.9056  137.4707  163.9688 C.3     1  UNL1        0.0724
      8 C         142.0264  140.1006  166.9051 C.ar    1  UNL1       -0.0227
      9 C         141.6100  139.8603  168.3260 C.ar    1  UNL1       -0.0043
     10 C         142.0203  140.8230  169.4007 C.ar    1  UNL1        0.0035
     11 C         142.8469  142.0258  169.0546 C.ar    1  UNL1        0.0714
     12 C         143.2633  142.2661  167.6337 C.ar    1  UNL1        0.0035
     13 C         142.8531  141.3035  166.5589 C.ar    1  UNL1       -0.0043
     14 C         143.2572  142.9885  170.1293 C.3     1  UNL1        0.4186
     15 F         143.6675  143.9511  171.2040 F       1  UNL1       -0.1659
     16 F         144.6705  142.4957  170.0312 F       1  UNL1       -0.1659
     17 F         141.8438  143.4813  170.2274 F       1  UNL1       -0.1659
     18 C         138.5181  137.5988  162.9524 C.3     1  UNL1        0.0730
     19 C         138.4541  138.1446  161.5566 C.3     1  UNL1        0.0294
     20 C         137.7425  139.4376  161.2889 C.3     1  UNL1        0.0666
     21 S         138.2992  140.4068  160.2886 S.3     1  UNL1       -0.0756
     22 C         140.4561  143.2778  161.7620 C.ar    1  UNL1        0.2029
     23 N         139.3095  144.0477  161.1768 N.ar    1  UNL1       -0.1250
     24 N         138.3619  143.0660  160.5536 N.ar    1  UNL1       -0.1220
     25 C         138.9229  141.6893  160.7537 C.ar    1  UNL1        0.1933
     26 N         140.2172  141.8203  161.5005 N.ar    1  UNL1       -0.2860
     27 C         141.1150  140.6917  161.9134 C.3     1  UNL1        0.1341
     28 C         140.7140  143.7061  164.9868 C.3     1  UNL1        0.0556
     29 C         141.7532  144.0596  163.9646 C.ar    1  UNL1        0.1001
     30 N         143.0934  144.6721  164.2451 N.ar    1  UNL1       -0.2085
     31 C         143.8032  144.8538  162.9362 C.ar    1  UNL1        0.2849
     32 O         142.9016  144.3536  161.8467 O.2     1  UNL1       -0.4283
     33 C         141.6347  143.8628  162.4823 C.ar    1  UNL1        0.1964
@<TRIPOS>BOND
     1    28    29    1
     2    29    30   ar
     3    30    31   ar
     4    31    32   ar
     5    32    33   ar
     6    33    22    1
     7    22    23   ar
     8    23    24   ar
     9    24    25   ar
    10    25    21    1
    11    21    20    1
    12    20    19    1
    13    19    18    1
    14    18     1    1
    15     1     2    1
    16     2     3    1
    17     3     4    1
    18     4     8    1
    19     8     9   ar
    20     9    10   ar
    21    10    11   ar
    22    11    14    1
    23    14    15    1
    24    14    16    1
    25    14    17    1
    26    11    12   ar
    27    12    13   ar
    28     4     5    1
    29     5     6    1
    30     6     7    1
    31    25    26   ar
    32    26    27    1
    33    33    29   ar
    34    26    22   ar
    35     7     1    1
    36     6     4    1
    37    13     8   ar
@<TRIPOS>MOLECULE
*****
 33 37 0 0 0
SMALL
GASTEIGER

@<TRIPOS>ATOM
      1 N         143.5130  140.0288  162.2910 N.3     1  UNL1       -0.2726
      2 C         142.5354  141.0272  162.8366 C.3     1  UNL1        0.0724
      3 C         142.2183  141.0425  164.3025 C.3     1  UNL1        0.0214
      4 C         142.8787  140.0593  165.2231 C.3     1  UNL1        0.0216
      5 C         143.5391  139.0762  166.1435 C.3     1  UNL1        0.0058
      6 C         143.8562  139.0609  164.6776 C.3     1  UNL1        0.0201
      7 C         144.1734  139.0457  163.2115 C.3     1  UNL1        0.0724
      8 C         142.1312  140.6445  166.3844 C.ar    1  UNL1       -0.0227
      9 C         141.9276  142.1279  166.4746 C.ar    1  UNL1       -0.0043
     10 C         141.1801  142.7131  167.6360 C.ar    1  UNL1        0.0035
     11 C         140.6362  141.8150  168.7072 C.ar    1  UNL1        0.0714
     12 C         140.8399  140.3316  168.6170 C.ar    1  UNL1        0.0035
     13 C         141.5873  139.7464  167.4557 C.ar    1  UNL1       -0.0043
     14 C         139.8887  142.4002  169.8686 C.3     1  UNL1        0.4186
     15 F         139.1413  142.9854  171.0300 F       1  UNL1       -0.1659
     16 F         140.7159  143.6477  169.7724 F       1  UNL1       -0.1659
     17 F         139.0615  141.1525  169.9649 F       1  UNL1       -0.1659
     18 C         143.8301  140.0135  160.8251 C.3     1  UNL1        0.0730
     19 C         142.9854  139.2074  159.8833 C.3     1  UNL1        0.0294
     20 C         141.5367  139.5482  159.6964 C.3     1  UNL1        0.0666
     21 S         140.4764  138.5809  160.1322 S.3     1  UNL1       -0.0756
     22 C         139.5753  137.9153  163.8485 C.ar    1  UNL1        0.2029
     23 N         140.8792  137.1830  163.7307 N.ar    1  UNL1       -0.1250
     24 N         141.3754  137.3432  162.3243 N.ar    1  UNL1       -0.1220
     25 C         140.3783  138.1745  161.5728 C.ar    1  UNL1        0.1933
     26 N         139.2658  138.5281  162.5148 N.ar    1  UNL1       -0.2860
     27 C         138.0562  139.3501  162.1817 C.3     1  UNL1        0.1341
     28 C         138.6578  140.6783  165.3227 C.3     1  UNL1        0.0556
     29 C         138.3079  139.2870  165.7608 C.ar    1  UNL1        0.1001
     30 N         137.4747  138.9214  166.9534 N.ar    1  UNL1       -0.2085
     31 C         137.3816  137.4255  167.0128 C.ar    1  UNL1        0.2849
     32 O         138.1572  136.8665  165.8569 O.2     1  UNL1       -0.4283
     33 C         138.7296  138.0170  165.0832 C.ar    1  UNL1        0.1964
@<TRIPOS>BOND
     1    28    29    1
     2    29    30   ar
     3    30    31   ar
     4    31    32   ar
     5    32    33   ar
     6    33    22    1
     7    22    23   ar
     8    23    24   ar
     9    24    25   ar
    10    25    21    1
    11    21    20    1
    12    20    19    1
    13    19    18    1
    14    18     1    1
    15     1     2    1
    16     2     3    1
    17     3     4    1
    18     4     8    1
    19     8     9   ar
    20     9    10   ar
    21    10    11   ar
    22    11    14    1
    23    14    15    1
    24    14    16    1
    25    14    17    1
    26    11    12   ar
    27    12    13   ar
    28     4     5    1
    29     5     6    1
    30     6     7    1
    31    25    26   ar
    32    26    27    1
    33    33    29   ar
    34    26    22   ar
    35     7     1    1
    36     6     4    1
    37    13     8   ar
@<TRIPOS>MOLECULE
*****
 33 37 0 0 0
SMALL
GASTEIGER

@<TRIPOS>ATOM
      1 N         140.8767  144.8136  162.8397 N.3     1  UNL1       -0.2726
      2 C         139.8696  144.4373  163.8857 C.3     1  UNL1        0.0724
      3 C         140.2669  143.5419  165.0216 C.3     1  UNL1        0.0214
      4 C         141.6714  143.0227  165.1116 C.3     1  UNL1        0.0216
      5 C         143.0758  142.5035  165.2014 C.3     1  UNL1        0.0058
      6 C         142.6785  143.3990  164.0655 C.3     1  UNL1        0.0201
      7 C         142.2811  144.2944  162.9296 C.3     1  UNL1        0.0724
      8 C         141.3194  142.2884  166.3713 C.ar    1  UNL1       -0.0227
      9 C         141.8717  140.9160  166.6187 C.ar    1  UNL1       -0.0043
     10 C         141.5196  140.1817  167.8785 C.ar    1  UNL1        0.0035
     11 C         140.6152  140.8200  168.8908 C.ar    1  UNL1        0.0714
     12 C         140.0629  142.1924  168.6433 C.ar    1  UNL1        0.0035
     13 C         140.4149  142.9267  167.3836 C.ar    1  UNL1       -0.0043
     14 C         140.2631  140.0857  170.1506 C.3     1  UNL1        0.4186
     15 F         139.9111  139.3515  171.4103 F       1  UNL1       -0.1659
     16 F         141.4289  139.1656  169.9401 F       1  UNL1       -0.1659
     17 F         139.0973  141.0059  170.3611 F       1  UNL1       -0.1659
     18 C         140.4795  145.7090  161.7038 C.3     1  UNL1        0.0730
     19 C         140.8643  145.3532  160.2983 C.3     1  UNL1        0.0294
     20 C         140.0231  144.3932  159.5106 C.3     1  UNL1        0.0666
     21 S         140.0719  142.9260  159.8186 S.3     1  UNL1       -0.0756
     22 C         138.5056  141.0812  162.8533 C.ar    1  UNL1        0.2029
     23 N         137.3459  141.9115  162.3888 N.ar    1  UNL1       -0.1250
     24 N         137.7915  142.7036  161.1955 N.ar    1  UNL1       -0.1220
     25 C         139.2265  142.3629  160.9225 C.ar    1  UNL1        0.1933
     26 N         139.6679  141.3601  161.9471 N.ar    1  UNL1       -0.2860
     27 C         141.0320  140.7444  162.0477 C.3     1  UNL1        0.1341
     28 C         138.8257  137.8374  162.6963 C.3     1  UNL1        0.0556
     29 C         138.6505  138.6466  163.9471 C.ar    1  UNL1        0.1001
     30 N         138.5917  138.1068  165.3455 N.ar    1  UNL1       -0.2085
     31 C         138.4083  139.2642  166.2818 C.ar    1  UNL1        0.2849
     32 O         138.3537  140.5193  165.4622 O.2     1  UNL1       -0.4283
     33 C         138.5034  140.1376  164.0193 C.ar    1  UNL1        0.1964
@<TRIPOS>BOND
     1    28    29    1
     2    29    30   ar
     3    30    31   ar
     4    31    32   ar
     5    32    33   ar
     6    33    22    1
     7    22    23   ar
     8    23    24   ar
     9    24    25   ar
    10    25    21    1
    11    21    20    1
    12    20    19    1
    13    19    18    1
    14    18     1    1
    15     1     2    1
    16     2     3    1
    17     3     4    1
    18     4     8    1
    19     8     9   ar
    20     9    10   ar
    21    10    11   ar
    22    11    14    1
    23    14    15    1
    24    14    16    1
    25    14    17    1
    26    11    12   ar
    27    12    13   ar
    28     4     5    1
    29     5     6    1
    30     6     7    1
    31    25    26   ar
    32    26    27    1
    33    33    29   ar
    34    26    22   ar
    35     7     1    1
    36     6     4    1
    37    13     8   ar
@<TRIPOS>MOLECULE
*****
 33 37 0 0 0
SMALL
GASTEIGER

@<TRIPOS>ATOM
      1 N         140.4646  145.1078  161.6802 N.3     1  UNL1       -0.2726
      2 C         141.6546  144.4226  162.2839 C.3     1  UNL1        0.0724
      3 C         141.5727  143.8619  163.6727 C.3     1  UNL1        0.0214
      4 C         140.3007  143.9865  164.4580 C.3     1  UNL1        0.0216
      5 C         139.0287  144.1111  165.2432 C.3     1  UNL1        0.0058
      6 C         139.1107  144.6717  163.8543 C.3     1  UNL1        0.0201
      7 C         139.1927  145.2323  162.4654 C.3     1  UNL1        0.0724
      8 C         140.9404  143.2672  165.6084 C.ar    1  UNL1       -0.0227
      9 C         140.1795  143.0696  166.8859 C.ar    1  UNL1       -0.0043
     10 C         140.8193  142.3503  168.0363 C.ar    1  UNL1        0.0035
     11 C         142.2199  141.8286  167.9091 C.ar    1  UNL1        0.0714
     12 C         142.9807  142.0262  166.6316 C.ar    1  UNL1        0.0035
     13 C         142.3410  142.7455  165.4813 C.ar    1  UNL1       -0.0043
     14 C         142.8596  141.1093  169.0595 C.3     1  UNL1        0.4186
     15 F         143.4994  140.3901  170.2099 F       1  UNL1       -0.1659
     16 F         143.8356  142.2368  169.2217 F       1  UNL1       -0.1659
     17 F         141.8836  139.9818  168.8974 F       1  UNL1       -0.1659
     18 C         140.5466  145.6684  160.2914 C.3     1  UNL1        0.0730
     19 C         140.5884  144.7441  159.1107 C.3     1  UNL1        0.0294
     20 C         139.6040  143.6173  159.0051 C.3     1  UNL1        0.0666
     21 S         139.9007  142.2987  159.6556 S.3     1  UNL1       -0.0756
     22 C         138.5080  140.8045  162.9562 C.ar    1  UNL1        0.2029
     23 N         137.3225  141.5828  162.4674 N.ar    1  UNL1       -0.1250
     24 N         137.6999  142.2372  161.1716 N.ar    1  UNL1       -0.1220
     25 C         139.1186  141.8635  160.8594 C.ar    1  UNL1        0.1933
     26 N         139.6181  140.9780  161.9624 N.ar    1  UNL1       -0.2860
     27 C         140.9872  140.3723  162.0553 C.3     1  UNL1        0.1341
     28 C         138.8430  137.5636  163.1400 C.3     1  UNL1        0.0556
     29 C         138.7262  138.5053  164.3018 C.ar    1  UNL1        0.1001
     30 N         138.7428  138.1225  165.7521 N.ar    1  UNL1       -0.2085
     31 C         138.5991  139.3757  166.5638 C.ar    1  UNL1        0.2849
     32 O         138.4937  140.5329  165.6153 O.2     1  UNL1       -0.4283
     33 C         138.5722  139.9949  164.2173 C.ar    1  UNL1        0.1964
@<TRIPOS>BOND
     1    28    29    1
     2    29    30   ar
     3    30    31   ar
     4    31    32   ar
     5    32    33   ar
     6    33    22    1
     7    22    23   ar
     8    23    24   ar
     9    24    25   ar
    10    25    21    1
    11    21    20    1
    12    20    19    1
    13    19    18    1
    14    18     1    1
    15     1     2    1
    16     2     3    1
    17     3     4    1
    18     4     8    1
    19     8     9   ar
    20     9    10   ar
    21    10    11   ar
    22    11    14    1
    23    14    15    1
    24    14    16    1
    25    14    17    1
    26    11    12   ar
    27    12    13   ar
    28     4     5    1
    29     5     6    1
    30     6     7    1
    31    25    26   ar
    32    26    27    1
    33    33    29   ar
    34    26    22   ar
    35     7     1    1
    36     6     4    1
    37    13     8   ar
@<TRIPOS>MOLECULE
*****
 33 37 0 0 0
SMALL
GASTEIGER

@<TRIPOS>ATOM
      1 N         144.0210  140.2073  162.6591 N.3     1  UNL1       -0.2726
      2 C         142.8608  139.8798  163.5517 C.3     1  UNL1        0.0724
      3 C         142.5785  140.7278  164.7563 C.3     1  UNL1        0.0214
      4 C         143.4564  141.9034  165.0684 C.3     1  UNL1        0.0216
      5 C         144.3343  143.0789  165.3805 C.3     1  UNL1        0.0058
      6 C         144.6166  142.2309  164.1759 C.3     1  UNL1        0.0201
      7 C         144.8989  141.3828  162.9712 C.3     1  UNL1        0.0724
      8 C         142.6236  142.2039  166.2793 C.ar    1  UNL1       -0.0227
      9 C         143.2680  142.2855  167.6313 C.ar    1  UNL1       -0.0043
     10 C         142.4351  142.5860  168.8422 C.ar    1  UNL1        0.0035
     11 C         140.9580  142.8050  168.7009 C.ar    1  UNL1        0.0714
     12 C         140.3136  142.7234  167.3488 C.ar    1  UNL1        0.0035
     13 C         141.1464  142.4229  166.1380 C.ar    1  UNL1       -0.0043
     14 C         140.1251  143.1055  169.9118 C.3     1  UNL1        0.4186
     15 F         139.2923  143.4060  171.1226 F       1  UNL1       -0.1659
     16 F         139.4711  141.7607  169.7956 F       1  UNL1       -0.1659
     17 F         140.7792  144.4504  170.0279 F       1  UNL1       -0.1659
     18 C         144.3032  139.3594  161.4545 C.3     1  UNL1        0.0730
     19 C         143.3765  139.3989  160.2756 C.3     1  UNL1        0.0294
     20 C         143.7246  140.2286  159.0755 C.3     1  UNL1        0.0666
     21 S         142.7338  141.2155  158.5331 S.3     1  UNL1       -0.0756
     22 C         141.0078  143.6782  160.9871 C.ar    1  UNL1        0.2029
     23 N         142.0905  144.5468  160.4184 N.ar    1  UNL1       -0.1250
     24 N         142.8688  143.7300  159.4300 N.ar    1  UNL1       -0.1220
     25 C         142.2672  142.3566  159.3877 C.ar    1  UNL1        0.1933
     26 N         141.1170  142.3246  160.3501 N.ar    1  UNL1       -0.2860
     27 C         140.2315  141.1459  160.6268 C.3     1  UNL1        0.1341
     28 C         141.6459  145.1296  163.8393 C.3     1  UNL1        0.0556
     29 C         140.2872  144.7579  163.3237 C.ar    1  UNL1        0.1001
     30 N         138.9833  144.9880  164.0286 N.ar    1  UNL1       -0.2085
     31 C         137.8842  144.4631  163.1532 C.ar    1  UNL1        0.2849
     32 O         138.5088  143.9085  161.9073 O.2     1  UNL1       -0.4283
     33 C         139.9939  144.0907  162.0127 C.ar    1  UNL1        0.1964
@<TRIPOS>BOND
     1    28    29    1
     2    29    30   ar
     3    30    31   ar
     4    31    32   ar
     5    32    33   ar
     6    33    22    1
     7    22    23   ar
     8    23    24   ar
     9    24    25   ar
    10    25    21    1
    11    21    20    1
    12    20    19    1
    13    19    18    1
    14    18     1    1
    15     1     2    1
    16     2     3    1
    17     3     4    1
    18     4     8    1
    19     8     9   ar
    20     9    10   ar
    21    10    11   ar
    22    11    14    1
    23    14    15    1
    24    14    16    1
    25    14    17    1
    26    11    12   ar
    27    12    13   ar
    28     4     5    1
    29     5     6    1
    30     6     7    1
    31    25    26   ar
    32    26    27    1
    33    33    29   ar
    34    26    22   ar
    35     7     1    1
    36     6     4    1
    37    13     8   ar
@<TRIPOS>MOLECULE
*****
 33 37 0 0 0
SMALL
GASTEIGER

@<TRIPOS>ATOM
      1 N         139.8540  138.0961  163.9012 N.3     1  UNL1       -0.2726
      2 C         139.5501  139.2993  164.7438 C.3     1  UNL1        0.0724
      3 C         140.5577  139.7911  165.7402 C.3     1  UNL1        0.0214
      4 C         141.8693  139.0797  165.8940 C.3     1  UNL1        0.0216
      5 C         143.1808  138.3683  166.0478 C.3     1  UNL1        0.0058
      6 C         142.1732  137.8765  165.0514 C.3     1  UNL1        0.0201
      7 C         141.1656  137.3847  164.0550 C.3     1  UNL1        0.0724
      8 C         142.2756  140.0582  166.9557 C.ar    1  UNL1       -0.0227
      9 C         142.2931  139.6383  168.3957 C.ar    1  UNL1       -0.0043
     10 C         142.6994  140.6170  169.4574 C.ar    1  UNL1        0.0035
     11 C         143.0882  142.0154  169.0792 C.ar    1  UNL1        0.0714
     12 C         143.0707  142.4354  167.6393 C.ar    1  UNL1        0.0035
     13 C         142.6644  141.4568  166.5776 C.ar    1  UNL1       -0.0043
     14 C         143.4945  142.9941  170.1410 C.3     1  UNL1        0.4186
     15 F         143.9008  143.9727  171.2027 F       1  UNL1       -0.1659
     16 F         144.8938  142.4553  170.1020 F       1  UNL1       -0.1659
     17 F         142.0950  143.5329  170.1799 F       1  UNL1       -0.1659
     18 C         138.8464  137.6043  162.9048 C.3     1  UNL1        0.0730
     19 C         138.7397  138.2601  161.5599 C.3     1  UNL1        0.0294
     20 C         139.7590  137.9665  160.4994 C.3     1  UNL1        0.0666
     21 S         140.9750  138.8347  160.3670 S.3     1  UNL1       -0.0756
     22 C         140.6701  142.4109  161.8448 C.ar    1  UNL1        0.2029
     23 N         141.7154  141.8152  162.7407 N.ar    1  UNL1       -0.1250
     24 N         141.9567  140.4030  162.2962 N.ar    1  UNL1       -0.1220
     25 C         141.0608  140.1260  161.1255 C.ar    1  UNL1        0.1933
     26 N         140.2656  141.3670  160.8465 N.ar    1  UNL1       -0.2860
     27 C         139.2451  141.5345  159.7601 C.3     1  UNL1        0.1341
     28 C         137.7155  143.2505  162.9467 C.3     1  UNL1        0.0556
     29 C         138.7671  144.1916  162.4383 C.ar    1  UNL1        0.1001
     30 N         138.6452  145.6839  162.3471 N.ar    1  UNL1       -0.2085
     31 C         139.9280  146.2202  161.7843 C.ar    1  UNL1        0.2849
     32 O         140.8427  145.0594  161.5276 O.2     1  UNL1       -0.4283
     33 C         140.1252  143.8057  161.9318 C.ar    1  UNL1        0.1964
@<TRIPOS>BOND
     1    28    29    1
     2    29    30   ar
     3    30    31   ar
     4    31    32   ar
     5    32    33   ar
     6    33    22    1
     7    22    23   ar
     8    23    24   ar
     9    24    25   ar
    10    25    21    1
    11    21    20    1
    12    20    19    1
    13    19    18    1
    14    18     1    1
    15     1     2    1
    16     2     3    1
    17     3     4    1
    18     4     8    1
    19     8     9   ar
    20     9    10   ar
    21    10    11   ar
    22    11    14    1
    23    14    15    1
    24    14    16    1
    25    14    17    1
    26    11    12   ar
    27    12    13   ar
    28     4     5    1
    29     5     6    1
    30     6     7    1
    31    25    26   ar
    32    26    27    1
    33    33    29   ar
    34    26    22   ar
    35     7     1    1
    36     6     4    1
    37    13     8   ar
@<TRIPOS>MOLECULE
*****
 33 37 0 0 0
SMALL
GASTEIGER

@<TRIPOS>ATOM
      1 N         137.8385  139.5143  161.5271 N.3     1  UNL1       -0.2726
      2 C         137.8184  140.5189  162.6408 C.3     1  UNL1        0.0724
      3 C         138.3552  140.1511  163.9923 C.3     1  UNL1        0.0214
      4 C         138.9121  138.7787  164.2301 C.3     1  UNL1        0.0216
      5 C         139.4689  137.4063  164.4678 C.3     1  UNL1        0.0058
      6 C         138.9321  137.7741  163.1163 C.3     1  UNL1        0.0201
      7 C         138.3953  138.1420  161.7648 C.3     1  UNL1        0.0724
      8 C         139.2104  139.1462  165.6534 C.ar    1  UNL1       -0.0227
      9 C         138.1026  139.1947  166.6635 C.ar    1  UNL1       -0.0043
     10 C         138.4010  139.5623  168.0869 C.ar    1  UNL1        0.0035
     11 C         139.8072  139.8814  168.5000 C.ar    1  UNL1        0.0714
     12 C         140.9150  139.8329  167.4899 C.ar    1  UNL1        0.0035
     13 C         140.6167  139.4654  166.0666 C.ar    1  UNL1       -0.0043
     14 C         140.1056  140.2490  169.9234 C.3     1  UNL1        0.4186
     15 F         140.4040  140.6166  171.3467 F       1  UNL1       -0.1659
     16 F         141.4533  139.6007  169.8082 F       1  UNL1       -0.1659
     17 F         138.7578  140.8973  170.0385 F       1  UNL1       -0.1659
     18 C         137.3017  139.8822  160.1756 C.3     1  UNL1        0.0730
     19 C         138.1995  140.5285  159.1625 C.3     1  UNL1        0.0294
     20 C         138.1706  142.0165  158.9758 C.3     1  UNL1        0.0666
     21 S         139.4330  142.8145  159.1156 S.3     1  UNL1       -0.0756
     22 C         140.9388  143.4474  162.6366 C.ar    1  UNL1        0.2029
     23 N         140.1111  144.6843  162.4487 N.ar    1  UNL1       -0.1250
     24 N         139.4463  144.5977  161.1069 N.ar    1  UNL1       -0.1220
     25 C         139.8631  143.3074  160.4655 C.ar    1  UNL1        0.1933
     26 N         140.7855  142.5965  161.4109 N.ar    1  UNL1       -0.2860
     27 C         141.4398  141.2680  161.1724 C.3     1  UNL1        0.1341
     28 C         139.8592  143.1747  165.7040 C.3     1  UNL1        0.0556
     29 C         141.2770  142.9938  165.2490 C.ar    1  UNL1        0.1001
     30 N         142.4475  142.6559  166.1240 N.ar    1  UNL1       -0.2085
     31 C         143.6672  142.5724  165.2549 C.ar    1  UNL1        0.2849
     32 O         143.2505  142.8588  163.8427 O.2     1  UNL1       -0.4283
     33 C         141.7733  143.1192  163.8391 C.ar    1  UNL1        0.1964
@<TRIPOS>BOND
     1    28    29    1
     2    29    30   ar
     3    30    31   ar
     4    31    32   ar
     5    32    33   ar
     6    33    22    1
     7    22    23   ar
     8    23    24   ar
     9    24    25   ar
    10    25    21    1
    11    21    20    1
    12    20    19    1
    13    19    18    1
    14    18     1    1
    15     1     2    1
    16     2     3    1
    17     3     4    1
    18     4     8    1
    19     8     9   ar
    20     9    10   ar
    21    10    11   ar
    22    11    14    1
    23    14    15    1
    24    14    16    1
    25    14    17    1
    26    11    12   ar
    27    12    13   ar
    28     4     5    1
    29     5     6    1
    30     6     7    1
    31    25    26   ar
    32    26    27    1
    33    33    29   ar
    34    26    22   ar
    35     7     1    1
    36     6     4    1
    37    13     8   ar
@<TRIPOS>MOLECULE
*****
 33 37 0 0 0
SMALL
GASTEIGER

@<TRIPOS>ATOM
      1 N         138.1131  139.4591  161.6736 N.3     1  UNL1       -0.2726
      2 C         138.3073  140.5405  162.6949 C.3     1  UNL1        0.0724
      3 C         138.6967  140.1847  164.0991 C.3     1  UNL1        0.0214
      4 C         138.8918  138.7476  164.4820 C.3     1  UNL1        0.0216
      5 C         139.0869  137.3105  164.8650 C.3     1  UNL1        0.0058
      6 C         138.6976  137.6662  163.4608 C.3     1  UNL1        0.0201
      7 C         138.3082  138.0220  162.0565 C.3     1  UNL1        0.0724
      8 C         139.2288  139.1664  165.8824 C.ar    1  UNL1       -0.0227
      9 C         140.6220  139.6095  166.2180 C.ar    1  UNL1       -0.0043
     10 C         140.9589  140.0284  167.6184 C.ar    1  UNL1        0.0035
     11 C         139.9026  140.0042  168.6831 C.ar    1  UNL1        0.0714
     12 C         138.5094  139.5611  168.3475 C.ar    1  UNL1        0.0035
     13 C         138.1725  139.1423  166.9472 C.ar    1  UNL1       -0.0043
     14 C         140.2395  140.4231  170.0835 C.3     1  UNL1        0.4186
     15 F         140.5765  140.8419  171.4839 F       1  UNL1       -0.1659
     16 F         141.2902  139.3546  170.1503 F       1  UNL1       -0.1659
     17 F         139.1888  141.4916  170.0167 F       1  UNL1       -0.1659
     18 C         137.7237  139.8149  160.2694 C.3     1  UNL1        0.0730
     19 C         138.7783  139.9605  159.2127 C.3     1  UNL1        0.0294
     20 C         139.5990  138.7735  158.8035 C.3     1  UNL1        0.0666
     21 S         141.0627  138.7259  159.1282 S.3     1  UNL1       -0.0756
     22 C         142.2430  139.9408  162.6206 C.ar    1  UNL1        0.2029
     23 N         142.2218  138.4545  162.8226 N.ar    1  UNL1       -0.1250
     24 N         141.7771  137.8186  161.5389 N.ar    1  UNL1       -0.1220
     25 C         141.5234  138.9117  160.5436 C.ar    1  UNL1        0.1933
     26 N         141.8114  140.2233  161.2121 N.ar    1  UNL1       -0.2860
     27 C         141.6891  141.5793  160.5827 C.3     1  UNL1        0.1341
     28 C         145.1149  140.1285  164.1588 C.3     1  UNL1        0.0556
     29 C         143.9483  141.0509  164.3539 C.ar    1  UNL1        0.1001
     30 N         143.8969  142.2216  165.2904 N.ar    1  UNL1       -0.2085
     31 C         142.5450  142.8588  165.1620 C.ar    1  UNL1        0.2849
     32 O         141.7609  142.0819  164.1463 O.2     1  UNL1       -0.4283
     33 C         142.6282  140.9646  163.6469 C.ar    1  UNL1        0.1964
@<TRIPOS>BOND
     1    28    29    1
     2    29    30   ar
     3    30    31   ar
     4    31    32   ar
     5    32    33   ar
     6    33    22    1
     7    22    23   ar
     8    23    24   ar
     9    24    25   ar
    10    25    21    1
    11    21    20    1
    12    20    19    1
    13    19    18    1
    14    18     1    1
    15     1     2    1
    16     2     3    1
    17     3     4    1
    18     4     8    1
    19     8     9   ar
    20     9    10   ar
    21    10    11   ar
    22    11    14    1
    23    14    15    1
    24    14    16    1
    25    14    17    1
    26    11    12   ar
    27    12    13   ar
    28     4     5    1
    29     5     6    1
    30     6     7    1
    31    25    26   ar
    32    26    27    1
    33    33    29   ar
    34    26    22   ar
    35     7     1    1
    36     6     4    1
    37    13     8   ar
@<TRIPOS>MOLECULE
*****
 33 37 0 0 0
SMALL
GASTEIGER

@<TRIPOS>ATOM
      1 N         139.2750  138.3287  163.2610 N.3     1  UNL1       -0.2726
      2 C         139.0274  139.5230  164.1341 C.3     1  UNL1        0.0724
      3 C         140.0234  139.8992  165.1906 C.3     1  UNL1        0.0214
      4 C         141.2673  139.0810  165.3741 C.3     1  UNL1        0.0216
      5 C         142.5110  138.2628  165.5575 C.3     1  UNL1        0.0058
      6 C         141.5149  137.8867  164.5010 C.3     1  UNL1        0.0201
      7 C         140.5187  137.5105  163.4445 C.3     1  UNL1        0.0724
      8 C         141.6994  139.9877  166.4881 C.ar    1  UNL1       -0.0227
      9 C         141.5280  141.4720  166.3564 C.ar    1  UNL1       -0.0043
     10 C         141.9602  142.3787  167.4705 C.ar    1  UNL1        0.0035
     11 C         142.5637  141.8011  168.7163 C.ar    1  UNL1        0.0714
     12 C         142.7351  140.3168  168.8480 C.ar    1  UNL1        0.0035
     13 C         142.3030  139.4101  167.7340 C.ar    1  UNL1       -0.0043
     14 C         142.9959  142.7078  169.8304 C.3     1  UNL1        0.4186
     15 F         143.4280  143.6145  170.9444 F       1  UNL1       -0.1659
     16 F         141.7147  143.4771  169.7013 F       1  UNL1       -0.1659
     17 F         144.2772  141.9385  169.9595 F       1  UNL1       -0.1659
     18 C         138.2789  137.9525  162.2045 C.3     1  UNL1        0.0730
     19 C         137.6675  139.0136  161.3383 C.3     1  UNL1        0.0294
     20 C         138.4306  139.5575  160.1671 C.3     1  UNL1        0.0666
     21 S         138.8711  140.9913  160.1596 S.3     1  UNL1       -0.0756
     22 C         141.9073  141.7290  162.4625 C.ar    1  UNL1        0.2029
     23 N         140.9000  142.7083  162.9882 N.ar    1  UNL1       -0.1250
     24 N         139.6401  142.5512  162.1895 N.ar    1  UNL1       -0.1220
     25 C         139.8686  141.4748  161.1702 C.ar    1  UNL1        0.1933
     26 N         141.2699  140.9667  161.3389 N.ar    1  UNL1       -0.2860
     27 C         141.9196  139.8859  160.5266 C.3     1  UNL1        0.1341
     28 C         144.1802  144.0573  162.7118 C.3     1  UNL1        0.0556
     29 C         144.3511  142.6147  163.0856 C.ar    1  UNL1        0.1001
     30 N         145.5967  141.9890  163.6397 N.ar    1  UNL1       -0.2085
     31 C         145.3217  140.5321  163.8675 C.ar    1  UNL1        0.2849
     32 O         143.9062  140.2574  163.4542 O.2     1  UNL1       -0.4283
     33 C         143.3063  141.5445  162.9710 C.ar    1  UNL1        0.1964
@<TRIPOS>BOND
     1    28    29    1
     2    29    30   ar
     3    30    31   ar
     4    31    32   ar
     5    32    33   ar
     6    33    22    1
     7    22    23   ar
     8    23    24   ar
     9    24    25   ar
    10    25    21    1
    11    21    20    1
    12    20    19    1
    13    19    18    1
    14    18     1    1
    15     1     2    1
    16     2     3    1
    17     3     4    1
    18     4     8    1
    19     8     9   ar
    20     9    10   ar
    21    10    11   ar
    22    11    14    1
    23    14    15    1
    24    14    16    1
    25    14    17    1
    26    11    12   ar
    27    12    13   ar
    28     4     5    1
    29     5     6    1
    30     6     7    1
    31    25    26   ar
    32    26    27    1
    33    33    29   ar
    34    26    22   ar
    35     7     1    1
    36     6     4    1
    37    13     8   ar
