@<TRIPOS>MOLECULE
*****
 34 38 0 0 0
SMALL
GASTEIGER

@<TRIPOS>ATOM
      1 C         142.0980  140.9903  161.5376 C.2     1  UNL1        0.2257
      2 O         141.6272  139.5680  161.6097 O.2     1  UNL1       -0.2749
      3 N         141.5521  141.9086  160.4847 N.am    1  UNL1       -0.2760
      4 C         142.0230  143.3310  160.4127 C.3     1  UNL1        0.1149
      5 C         141.4770  144.2494  159.3598 C.3     1  UNL1        0.1141
      6 N         140.4601  143.7453  158.3790 N.pl3   1  UNL1       -0.2846
      7 C         139.9893  142.3230  158.4511 C.3     1  UNL1        0.1141
      8 C         140.5352  141.4047  159.5039 C.3     1  UNL1        0.1149
      9 C         142.6703  142.2232  163.7518 C.3     1  UNL1        0.0851
     10 C         143.6871  142.7273  164.7326 C.3     1  UNL1        0.0096
     11 C         145.1485  142.5025  164.4801 C.3     1  UNL1        0.0005
     12 C         145.5931  141.7736  163.2467 C.3     1  UNL1        0.0005
     13 C         144.5763  141.2695  162.2659 C.3     1  UNL1        0.0096
     14 C         143.1149  141.4944  162.5185 C.3     1  UNL1        0.0853
     15 N         140.6063  143.8010  163.7674 N.am    1  UNL1       -0.2959
     16 C         141.2089  142.4480  164.0043 C.2     1  UNL1        0.2231
     17 O         140.3501  141.3198  164.4937 O.2     1  UNL1       -0.2751
     18 H         141.1699  144.5415  163.4461 H       1  UNL1        0.1502
     19 C         139.1448  144.0258  164.0199 C.3     1  UNL1        0.1364
     20 C         137.8771  144.3843  164.7371 C.3     1  UNL1        0.0353
     21 C         139.1951  144.4888  165.4457 C.3     1  UNL1        0.0353
     22 N         138.0295  143.2559  161.3434 N.1     1  UNL1       -0.1943
     23 C         138.5872  143.6410  162.6816 C.1     1  UNL1        0.0896
     24 C         139.9141  144.6637  157.3261 C.ar    1  UNL1        0.1631
     25 N         140.0021  146.1611  157.3304 N.ar    1  UNL1       -0.2240
     26 C         139.3267  146.6687  156.0910 C.ar    1  UNL1        0.0897
     27 C         138.8213  145.4850  155.3206 C.ar    1  UNL1        0.0572
     28 S         139.1844  144.2458  156.0840 S.2     1  UNL1       -0.0510
     29 C         139.1820  148.1074  155.6920 C.ar    1  UNL1        0.0182
     30 C         139.7448  148.5836  154.3857 C.ar    1  UNL1        0.0015
     31 C         139.6002  150.0223  153.9867 C.ar    1  UNL1        0.0000
     32 C         138.8928  150.9848  154.8941 C.ar    1  UNL1        0.0000
     33 C         138.3301  150.5085  156.2004 C.ar    1  UNL1        0.0000
     34 C         138.4747  149.0698  156.5993 C.ar    1  UNL1        0.0015
@<TRIPOS>BOND
     1    22    23    3
     2    23    19    1
     3    19    15    1
     4    15    16   am
     5    16    17    2
     6     9    16    1
     7     9    10    1
     8    10    11    1
     9    11    12    1
    10    12    13    1
    11    13    14    1
    12    14     1    1
    13     1     2    2
    14     1     3   am
    15     3     4    1
    16     4     5    1
    17     5     6    1
    18     6    24    1
    19    24    25   ar
    20    25    26   ar
    21    26    29    1
    22    29    30   ar
    23    30    31   ar
    24    31    32   ar
    25    32    33   ar
    26    33    34   ar
    27    26    27   ar
    28    27    28   ar
    29     6     7    1
    30     7     8    1
    31    19    20    1
    32    20    21    1
    33    21    19    1
    34    14     9    1
    35     8     3    1
    36    28    24   ar
    37    34    29   ar
    38    15    18    1
@<TRIPOS>MOLECULE
*****
 34 38 0 0 0
SMALL
GASTEIGER

@<TRIPOS>ATOM
      1 C         143.0712  141.7633  163.6059 C.2     1  UNL1        0.2257
      2 O         144.1948  141.6215  164.5895 O.2     1  UNL1       -0.2749
      3 N         143.0396  140.9072  162.3747 N.am    1  UNL1       -0.2760
      4 C         141.9160  141.0491  161.3911 C.3     1  UNL1        0.1149
      5 C         141.8844  140.1930  160.1598 C.3     1  UNL1        0.1141
      6 N         142.9765  139.1949  159.9121 N.pl3   1  UNL1       -0.2846
      7 C         144.1001  139.0530  160.8957 C.3     1  UNL1        0.1141
      8 C         144.1316  139.9092  162.1269 C.3     1  UNL1        0.1149
      9 C         140.6936  142.3238  164.4910 C.3     1  UNL1        0.0851
     10 C         139.6016  143.3218  164.7387 C.3     1  UNL1        0.0096
     11 C         139.7949  144.7573  164.3491 C.3     1  UNL1        0.0005
     12 C         141.0803  145.1949  163.7117 C.3     1  UNL1        0.0005
     13 C         142.1724  144.1969  163.4640 C.3     1  UNL1        0.0096
     14 C         141.9791  142.7614  163.8536 C.3     1  UNL1        0.0853
     15 N         139.5411  140.0259  164.1151 N.am    1  UNL1       -0.2959
     16 C         140.5003  140.8882  164.8807 C.2     1  UNL1        0.2231
     17 O         141.2663  140.3151  166.0360 O.2     1  UNL1       -0.2751
     18 H         139.0384  140.4022  163.3568 H       1  UNL1        0.1502
     19 C         139.3478  138.5903  164.5048 C.3     1  UNL1        0.1364
     20 C         138.8502  137.3863  165.2482 C.3     1  UNL1        0.0353
     21 C         138.4046  138.7585  165.6589 C.3     1  UNL1        0.0353
     22 N         141.1001  137.2573  162.4670 N.1     1  UNL1       -0.1943
     23 C         140.2239  137.9238  163.4859 C.1     1  UNL1        0.0896
     24 C         142.9449  138.3388  158.6809 C.ar    1  UNL1        0.1631
     25 N         142.8971  136.8398  158.6502 N.ar    1  UNL1       -0.2240
     26 C         142.8783  136.4059  157.2145 C.ar    1  UNL1        0.0897
     27 C         142.9145  137.6366  156.3578 C.ar    1  UNL1        0.0572
     28 S         142.9557  138.8312  157.2641 S.2     1  UNL1       -0.0510
     29 C         142.8315  134.9898  156.7220 C.ar    1  UNL1        0.0182
     30 C         141.8910  134.6111  155.6165 C.ar    1  UNL1        0.0015
     31 C         141.8442  133.1950  155.1240 C.ar    1  UNL1        0.0000
     32 C         142.7379  132.1578  155.7369 C.ar    1  UNL1        0.0000
     33 C         143.6783  132.5367  156.8423 C.ar    1  UNL1        0.0000
     34 C         143.7251  133.9527  157.3348 C.ar    1  UNL1        0.0015
@<TRIPOS>BOND
     1    22    23    3
     2    23    19    1
     3    19    15    1
     4    15    16   am
     5    16    17    2
     6     9    16    1
     7     9    10    1
     8    10    11    1
     9    11    12    1
    10    12    13    1
    11    13    14    1
    12    14     1    1
    13     1     2    2
    14     1     3   am
    15     3     4    1
    16     4     5    1
    17     5     6    1
    18     6    24    1
    19    24    25   ar
    20    25    26   ar
    21    26    29    1
    22    29    30   ar
    23    30    31   ar
    24    31    32   ar
    25    32    33   ar
    26    33    34   ar
    27    26    27   ar
    28    27    28   ar
    29     6     7    1
    30     7     8    1
    31    19    20    1
    32    20    21    1
    33    21    19    1
    34    14     9    1
    35     8     3    1
    36    28    24   ar
    37    34    29   ar
    38    15    18    1
@<TRIPOS>MOLECULE
*****
 34 38 0 0 0
SMALL
GASTEIGER

@<TRIPOS>ATOM
      1 C         140.3426  138.1205  163.9732 C.2     1  UNL1        0.2257
      2 O         141.0638  136.8084  163.8831 O.2     1  UNL1       -0.2749
      3 N         139.8778  138.8082  162.7238 N.am    1  UNL1       -0.2760
      4 C         139.1565  140.1204  162.8140 C.3     1  UNL1        0.1149
      5 C         138.6917  140.8081  161.5646 C.3     1  UNL1        0.1141
      6 N         138.9481  140.1836  160.2250 N.pl3   1  UNL1       -0.2846
      7 C         139.6693  138.8715  160.1349 C.3     1  UNL1        0.1141
      8 C         140.1342  138.1838  161.3843 C.3     1  UNL1        0.1149
      9 C         141.1803  139.4959  166.0120 C.3     1  UNL1        0.0851
     10 C         140.9239  140.1203  167.3515 C.3     1  UNL1        0.0096
     11 C         139.5734  139.9939  167.9918 C.3     1  UNL1        0.0005
     12 C         138.4792  139.2429  167.2925 C.3     1  UNL1        0.0005
     13 C         138.7356  138.6185  165.9530 C.3     1  UNL1        0.0096
     14 C         140.0861  138.7450  165.3128 C.3     1  UNL1        0.0853
     15 N         142.7856  140.7057  164.3660 N.am    1  UNL1       -0.2959
     16 C         142.5309  139.6224  165.3717 C.2     1  UNL1        0.2231
     17 O         143.6267  138.6655  165.7371 O.2     1  UNL1       -0.2751
     18 H         142.0664  141.3337  164.1261 H       1  UNL1        0.1502
     19 C         144.1362  140.8321  163.7256 C.3     1  UNL1        0.1364
     20 C         145.5157  141.3442  163.4343 C.3     1  UNL1        0.0353
     21 C         144.6884  141.9865  164.5083 C.3     1  UNL1        0.0353
     22 N         143.9697  138.6113  161.7156 N.1     1  UNL1       -0.1943
     23 C         144.0529  139.7217  162.7207 C.1     1  UNL1        0.0896
     24 C         138.4833  140.8713  158.9756 C.ar    1  UNL1        0.1631
     25 N         137.3119  140.4671  158.1303 N.ar    1  UNL1       -0.2240
     26 C         137.2129  141.4300  156.9844 C.ar    1  UNL1        0.0897
     27 C         138.3231  142.4293  157.1215 C.ar    1  UNL1        0.0572
     28 S         139.1082  142.0841  158.3521 S.2     1  UNL1       -0.0510
     29 C         136.1843  141.3989  155.8931 C.ar    1  UNL1        0.0182
     30 C         134.8921  140.6661  156.1012 C.ar    1  UNL1        0.0015
     31 C         133.8635  140.6351  155.0099 C.ar    1  UNL1        0.0000
     32 C         134.1271  141.3367  153.7105 C.ar    1  UNL1        0.0000
     33 C         135.4193  142.0694  153.5025 C.ar    1  UNL1        0.0000
     34 C         136.4479  142.1005  154.5939 C.ar    1  UNL1        0.0015
@<TRIPOS>BOND
     1    22    23    3
     2    23    19    1
     3    19    15    1
     4    15    16   am
     5    16    17    2
     6     9    16    1
     7     9    10    1
     8    10    11    1
     9    11    12    1
    10    12    13    1
    11    13    14    1
    12    14     1    1
    13     1     2    2
    14     1     3   am
    15     3     4    1
    16     4     5    1
    17     5     6    1
    18     6    24    1
    19    24    25   ar
    20    25    26   ar
    21    26    29    1
    22    29    30   ar
    23    30    31   ar
    24    31    32   ar
    25    32    33   ar
    26    33    34   ar
    27    26    27   ar
    28    27    28   ar
    29     6     7    1
    30     7     8    1
    31    19    20    1
    32    20    21    1
    33    21    19    1
    34    14     9    1
    35     8     3    1
    36    28    24   ar
    37    34    29   ar
    38    15    18    1
@<TRIPOS>MOLECULE
*****
 34 38 0 0 0
SMALL
GASTEIGER

@<TRIPOS>ATOM
      1 C         139.9159  142.9851  164.2997 C.2     1  UNL1        0.2257
      2 O         140.0703  144.0620  165.3324 O.2     1  UNL1       -0.2749
      3 N         139.9681  143.3316  162.8412 N.am    1  UNL1       -0.2760
      4 C         139.8138  142.2546  161.8085 C.3     1  UNL1        0.1149
      5 C         139.8660  142.6010  160.3500 C.3     1  UNL1        0.1141
      6 N         140.0725  144.0245  159.9242 N.pl3   1  UNL1       -0.2846
      7 C         140.2269  145.1014  160.9569 C.3     1  UNL1        0.1141
      8 C         140.1747  144.7549  162.4154 C.3     1  UNL1        0.1149
      9 C         140.8919  140.6929  165.0370 C.3     1  UNL1        0.0851
     10 C         140.6854  139.2695  165.4628 C.3     1  UNL1        0.0096
     11 C         139.2964  138.7149  165.5771 C.3     1  UNL1        0.0005
     12 C         138.1139  139.5837  165.2657 C.3     1  UNL1        0.0005
     13 C         138.3204  141.0070  164.8399 C.3     1  UNL1        0.0096
     14 C         139.7094  141.5616  164.7255 C.3     1  UNL1        0.0853
     15 N         143.0341  141.1234  163.6314 N.am    1  UNL1       -0.2959
     16 C         142.2809  141.2476  164.9226 C.2     1  UNL1        0.2231
     17 O         142.9167  141.9264  166.0995 O.2     1  UNL1       -0.2751
     18 H         142.6168  140.6779  162.8590 H       1  UNL1        0.1502
     19 C         144.4231  141.6781  163.5170 C.3     1  UNL1        0.1364
     20 C         145.9195  141.7568  163.5849 C.3     1  UNL1        0.0353
     21 C         145.2148  140.5000  164.0022 C.3     1  UNL1        0.0353
     22 N         143.8044  144.4195  162.4672 N.1     1  UNL1       -0.1943
     23 C         144.1137  143.0488  162.9921 C.1     1  UNL1        0.0896
     24 C         140.1247  144.3710  158.4657 C.ar    1  UNL1        0.1631
     25 N         140.0169  145.7486  157.8823 N.ar    1  UNL1       -0.2240
     26 C         140.1194  145.6297  156.3906 C.ar    1  UNL1        0.0897
     27 C         140.2907  144.1785  156.0520 C.ar    1  UNL1        0.0572
     28 S         140.2940  143.4006  157.3345 S.2     1  UNL1       -0.0510
     29 C         140.0610  146.7630  155.4097 C.ar    1  UNL1        0.0182
     30 C         140.7802  146.6570  154.0976 C.ar    1  UNL1        0.0015
     31 C         140.7218  147.7903  153.1167 C.ar    1  UNL1        0.0000
     32 C         139.9442  149.0296  153.4479 C.ar    1  UNL1        0.0000
     33 C         139.2250  149.1355  154.7599 C.ar    1  UNL1        0.0000
     34 C         139.2835  148.0022  155.7408 C.ar    1  UNL1        0.0015
@<TRIPOS>BOND
     1    22    23    3
     2    23    19    1
     3    19    15    1
     4    15    16   am
     5    16    17    2
     6     9    16    1
     7     9    10    1
     8    10    11    1
     9    11    12    1
    10    12    13    1
    11    13    14    1
    12    14     1    1
    13     1     2    2
    14     1     3   am
    15     3     4    1
    16     4     5    1
    17     5     6    1
    18     6    24    1
    19    24    25   ar
    20    25    26   ar
    21    26    29    1
    22    29    30   ar
    23    30    31   ar
    24    31    32   ar
    25    32    33   ar
    26    33    34   ar
    27    26    27   ar
    28    27    28   ar
    29     6     7    1
    30     7     8    1
    31    19    20    1
    32    20    21    1
    33    21    19    1
    34    14     9    1
    35     8     3    1
    36    28    24   ar
    37    34    29   ar
    38    15    18    1
@<TRIPOS>MOLECULE
*****
 34 38 0 0 0
SMALL
GASTEIGER

@<TRIPOS>ATOM
      1 C         142.8279  143.4391  162.5084 C.2     1  UNL1        0.2257
      2 O         144.1099  144.1928  162.7040 O.2     1  UNL1       -0.2749
      3 N         142.7186  142.4155  161.4174 N.am    1  UNL1       -0.2760
      4 C         141.4365  141.6618  161.2218 C.3     1  UNL1        0.1149
      5 C         141.3272  140.6383  160.1307 C.3     1  UNL1        0.1141
      6 N         142.5000  140.3685  159.2352 N.pl3   1  UNL1       -0.2846
      7 C         143.7820  141.1222  159.4308 C.3     1  UNL1        0.1141
      8 C         143.8913  142.1457  160.5219 C.3     1  UNL1        0.1149
      9 C         141.4621  142.8988  164.6515 C.3     1  UNL1        0.0851
     10 C         140.2894  143.1686  165.5470 C.3     1  UNL1        0.0096
     11 C         139.3097  144.2484  165.1948 C.3     1  UNL1        0.0005
     12 C         139.5027  145.0585  163.9472 C.3     1  UNL1        0.0005
     13 C         140.6754  144.7887  163.0518 C.3     1  UNL1        0.0096
     14 C         141.6551  143.7089  163.4039 C.3     1  UNL1        0.0853
     15 N         142.0381  140.3779  164.9029 N.am    1  UNL1       -0.2959
     16 C         142.4419  141.8189  165.0037 C.2     1  UNL1        0.2231
     17 O         143.8255  142.1802  165.4565 O.2     1  UNL1       -0.2751
     18 H         141.1300  140.1408  164.6057 H       1  UNL1        0.1502
     19 C         143.0179  139.2980  165.2550 C.3     1  UNL1        0.1364
     20 C         143.8036  138.3217  166.0793 C.3     1  UNL1        0.0353
     21 C         142.7994  139.2213  166.7370 C.3     1  UNL1        0.0353
     22 N         144.1352  138.7015  162.5355 N.1     1  UNL1       -0.1943
     23 C         143.5765  138.9998  163.8953 C.1     1  UNL1        0.0896
     24 C         142.3907  139.3449  158.1442 C.ar    1  UNL1        0.1631
     25 N         142.5215  137.8601  158.3118 N.ar    1  UNL1       -0.2240
     26 C         142.3431  137.2240  156.9652 C.ar    1  UNL1        0.0897
     27 C         142.1019  138.3157  155.9652 C.ar    1  UNL1        0.0572
     28 S         142.1314  139.6265  156.6938 S.2     1  UNL1       -0.0510
     29 C         142.3964  135.7542  156.6703 C.ar    1  UNL1        0.0182
     30 C         143.2905  134.8595  157.4767 C.ar    1  UNL1        0.0015
     31 C         143.3438  133.3898  157.1818 C.ar    1  UNL1        0.0000
     32 C         142.5030  132.8148  156.0806 C.ar    1  UNL1        0.0000
     33 C         141.6090  133.7095  155.2743 C.ar    1  UNL1        0.0000
     34 C         141.5557  135.1792  155.5692 C.ar    1  UNL1        0.0015
@<TRIPOS>BOND
     1    22    23    3
     2    23    19    1
     3    19    15    1
     4    15    16   am
     5    16    17    2
     6     9    16    1
     7     9    10    1
     8    10    11    1
     9    11    12    1
    10    12    13    1
    11    13    14    1
    12    14     1    1
    13     1     2    2
    14     1     3   am
    15     3     4    1
    16     4     5    1
    17     5     6    1
    18     6    24    1
    19    24    25   ar
    20    25    26   ar
    21    26    29    1
    22    29    30   ar
    23    30    31   ar
    24    31    32   ar
    25    32    33   ar
    26    33    34   ar
    27    26    27   ar
    28    27    28   ar
    29     6     7    1
    30     7     8    1
    31    19    20    1
    32    20    21    1
    33    21    19    1
    34    14     9    1
    35     8     3    1
    36    28    24   ar
    37    34    29   ar
    38    15    18    1
@<TRIPOS>MOLECULE
*****
 34 38 0 0 0
SMALL
GASTEIGER

@<TRIPOS>ATOM
      1 C         141.1318  141.4202  161.9524 C.2     1  UNL1        0.2257
      2 O         139.7197  141.9230  162.0073 O.2     1  UNL1       -0.2749
      3 N         141.5230  140.3928  160.9319 N.am    1  UNL1       -0.2760
      4 C         142.9352  139.8901  160.8770 C.3     1  UNL1        0.1149
      5 C         143.3264  138.8626  159.8565 C.3     1  UNL1        0.1141
      6 N         142.3053  138.3379  158.8910 N.pl3   1  UNL1       -0.2846
      7 C         140.8932  138.8406  158.9459 C.3     1  UNL1        0.1141
      8 C         140.5020  139.8681  159.9664 C.3     1  UNL1        0.1149
      9 C         142.2638  141.3487  164.2898 C.3     1  UNL1        0.0851
     10 C         143.2848  141.8733  165.2553 C.3     1  UNL1        0.0096
     11 C         144.1949  142.9943  164.8489 C.3     1  UNL1        0.0005
     12 C         144.0840  143.5905  163.4770 C.3     1  UNL1        0.0005
     13 C         143.0630  143.0659  162.5115 C.3     1  UNL1        0.0096
     14 C         142.1529  141.9449  162.9179 C.3     1  UNL1        0.0853
     15 N         139.8933  140.4898  164.9166 N.am    1  UNL1       -0.2959
     16 C         141.3536  140.2277  164.6962 C.2     1  UNL1        0.2231
     17 O         141.9039  138.8448  164.8822 O.2     1  UNL1       -0.2751
     18 H         139.5321  141.3974  164.7945 H       1  UNL1        0.1502
     19 C         138.9831  139.3688  165.3230 C.3     1  UNL1        0.1364
     20 C         138.1857  138.4470  166.1973 C.3     1  UNL1        0.0353
     21 C         138.9918  139.5529  166.8116 C.3     1  UNL1        0.0353
     22 N         138.3336  138.2220  162.6279 N.1     1  UNL1       -0.1943
     23 C         138.6584  138.7955  163.9755 C.1     1  UNL1        0.0896
     24 C         142.6965  137.3104  157.8705 C.ar    1  UNL1        0.1631
     25 N         143.0655  135.8841  158.1521 N.ar    1  UNL1       -0.2240
     26 C         143.3844  135.2210  156.8449 C.ar    1  UNL1        0.0897
     27 C         143.2125  136.2376  155.7554 C.ar    1  UNL1        0.0572
     28 S         142.7873  137.5290  156.3893 S.2     1  UNL1       -0.0510
     29 C         143.8019  133.7923  156.6597 C.ar    1  UNL1        0.0182
     30 C         143.4516  133.0666  155.3945 C.ar    1  UNL1        0.0015
     31 C         143.8691  131.6378  155.2094 C.ar    1  UNL1        0.0000
     32 C         144.6368  130.9348  156.2893 C.ar    1  UNL1        0.0000
     33 C         144.9871  131.6605  157.5545 C.ar    1  UNL1        0.0000
     34 C         144.5696  133.0893  157.7396 C.ar    1  UNL1        0.0015
@<TRIPOS>BOND
     1    22    23    3
     2    23    19    1
     3    19    15    1
     4    15    16   am
     5    16    17    2
     6     9    16    1
     7     9    10    1
     8    10    11    1
     9    11    12    1
    10    12    13    1
    11    13    14    1
    12    14     1    1
    13     1     2    2
    14     1     3   am
    15     3     4    1
    16     4     5    1
    17     5     6    1
    18     6    24    1
    19    24    25   ar
    20    25    26   ar
    21    26    29    1
    22    29    30   ar
    23    30    31   ar
    24    31    32   ar
    25    32    33   ar
    26    33    34   ar
    27    26    27   ar
    28    27    28   ar
    29     6     7    1
    30     7     8    1
    31    19    20    1
    32    20    21    1
    33    21    19    1
    34    14     9    1
    35     8     3    1
    36    28    24   ar
    37    34    29   ar
    38    15    18    1
@<TRIPOS>MOLECULE
*****
 34 38 0 0 0
SMALL
GASTEIGER

@<TRIPOS>ATOM
      1 C         138.5960  140.3802  163.9957 C.2     1  UNL1        0.2257
      2 O         138.1994  139.3272  164.9876 O.2     1  UNL1       -0.2749
      3 N         138.8329  140.0088  162.5619 N.am    1  UNL1       -0.2760
      4 C         139.2295  141.0619  161.5700 C.3     1  UNL1        0.1149
      5 C         139.4663  140.6905  160.1361 C.3     1  UNL1        0.1141
      6 N         139.3065  139.2660  159.6941 N.pl3   1  UNL1       -0.2846
      7 C         138.9098  138.2130  160.6860 C.3     1  UNL1        0.1141
      8 C         138.6730  138.5844  162.1199 C.3     1  UNL1        0.1149
      9 C         140.0741  142.2807  164.9723 C.3     1  UNL1        0.0851
     10 C         140.2340  143.7051  165.4143 C.3     1  UNL1        0.0096
     11 C         139.0757  144.6536  165.3217 C.3     1  UNL1        0.0005
     12 C         137.7575  144.1777  164.7871 C.3     1  UNL1        0.0005
     13 C         137.5976  142.7532  164.3451 C.3     1  UNL1        0.0096
     14 C         138.7559  141.8047  164.4377 C.3     1  UNL1        0.0853
     15 N         142.1832  141.1946  163.9129 N.am    1  UNL1       -0.2959
     16 C         141.2325  141.3321  165.0649 C.2     1  UNL1        0.2231
     17 O         141.4400  140.5211  166.3096 O.2     1  UNL1       -0.2751
     18 H         142.0470  141.7270  163.0961 H       1  UNL1        0.1502
     19 C         143.3416  140.2461  164.0056 C.3     1  UNL1        0.1364
     20 C         144.7199  139.7281  164.2919 C.3     1  UNL1        0.0353
     21 C         144.3773  141.1566  164.5956 C.3     1  UNL1        0.0353
     22 N         142.0743  137.7662  162.8899 N.1     1  UNL1       -0.1943
     23 C         142.7080  139.0062  163.4477 C.1     1  UNL1        0.0896
     24 C         139.5433  138.8946  158.2603 C.ar    1  UNL1        0.1631
     25 N         140.1926  137.6337  157.7718 N.ar    1  UNL1       -0.2240
     26 C         140.2230  137.6787  156.2727 C.ar    1  UNL1        0.0897
     27 C         139.5924  138.9673  155.8348 C.ar    1  UNL1        0.0572
     28 S         139.1723  139.7187  157.0632 S.2     1  UNL1       -0.0510
     29 C         140.7852  136.6207  155.3701 C.ar    1  UNL1        0.0182
     30 C         140.2563  136.4667  153.9750 C.ar    1  UNL1        0.0015
     31 C         140.8185  135.4088  153.0724 C.ar    1  UNL1        0.0000
     32 C         141.9096  134.5049  153.5650 C.ar    1  UNL1        0.0000
     33 C         142.4385  134.6590  154.9601 C.ar    1  UNL1        0.0000
     34 C         141.8762  135.7170  155.8627 C.ar    1  UNL1        0.0015
@<TRIPOS>BOND
     1    22    23    3
     2    23    19    1
     3    19    15    1
     4    15    16   am
     5    16    17    2
     6     9    16    1
     7     9    10    1
     8    10    11    1
     9    11    12    1
    10    12    13    1
    11    13    14    1
    12    14     1    1
    13     1     2    2
    14     1     3   am
    15     3     4    1
    16     4     5    1
    17     5     6    1
    18     6    24    1
    19    24    25   ar
    20    25    26   ar
    21    26    29    1
    22    29    30   ar
    23    30    31   ar
    24    31    32   ar
    25    32    33   ar
    26    33    34   ar
    27    26    27   ar
    28    27    28   ar
    29     6     7    1
    30     7     8    1
    31    19    20    1
    32    20    21    1
    33    21    19    1
    34    14     9    1
    35     8     3    1
    36    28    24   ar
    37    34    29   ar
    38    15    18    1
@<TRIPOS>MOLECULE
*****
 34 38 0 0 0
SMALL
GASTEIGER

@<TRIPOS>ATOM
      1 C         140.4012  142.9960  162.9718 C.2     1  UNL1        0.2257
      2 O         139.1243  143.6631  163.3893 O.2     1  UNL1       -0.2749
      3 N         140.4066  142.0470  161.8103 N.am    1  UNL1       -0.2760
      4 C         141.6837  141.3798  161.3928 C.3     1  UNL1        0.1149
      5 C         141.6891  140.4307  160.2312 C.3     1  UNL1        0.1141
      6 N         140.4174  140.1488  159.4871 N.pl3   1  UNL1       -0.2846
      7 C         139.1405  140.8159  159.9047 C.3     1  UNL1        0.1141
      8 C         139.1351  141.7650  161.0662 C.3     1  UNL1        0.1149
      9 C         142.0922  142.3882  164.8483 C.3     1  UNL1        0.0851
     10 C         143.3638  142.6701  165.5924 C.3     1  UNL1        0.0096
     11 C         144.2160  143.8418  165.2040 C.3     1  UNL1        0.0005
     12 C         143.7966  144.7315  164.0715 C.3     1  UNL1        0.0005
     13 C         142.5251  144.4496  163.3274 C.3     1  UNL1        0.0096
     14 C         141.6729  143.2780  163.7159 C.3     1  UNL1        0.0853
     15 N         139.9818  141.4326  166.0243 N.am    1  UNL1       -0.2959
     16 C         141.2399  141.2165  165.2368 C.2     1  UNL1        0.2231
     17 O         141.6458  139.8288  164.8376 O.2     1  UNL1       -0.2751
     18 H         139.7153  142.3435  166.2863 H       1  UNL1        0.1502
     19 C         139.1295  140.2609  166.4127 C.3     1  UNL1        0.1364
     20 C         138.0996  139.1744  166.3189 C.3     1  UNL1        0.0353
     21 C         138.3221  140.0992  165.1590 C.3     1  UNL1        0.0353
     22 N         140.1525  139.7709  169.1901 N.1     1  UNL1       -0.1943
     23 C         139.6409  140.0159  167.8014 C.1     1  UNL1        0.0896
     24 C         140.4228  139.1997  158.3256 C.ar    1  UNL1        0.1631
     25 N         141.3634  138.0472  158.1330 N.ar    1  UNL1       -0.2240
     26 C         141.0105  137.3717  156.8411 C.ar    1  UNL1        0.0897
     27 C         139.8517  138.1067  156.2351 C.ar    1  UNL1        0.0572
     28 S         139.4886  139.2365  157.1526 S.2     1  UNL1       -0.0510
     29 C         141.6959  136.1719  156.2575 C.ar    1  UNL1        0.0182
     30 C         143.0116  135.7150  156.8146 C.ar    1  UNL1        0.0015
     31 C         143.6970  134.5152  156.2311 C.ar    1  UNL1        0.0000
     32 C         143.0669  133.7723  155.0905 C.ar    1  UNL1        0.0000
     33 C         141.7512  134.2292  154.5334 C.ar    1  UNL1        0.0000
     34 C         141.0658  135.4290  155.1170 C.ar    1  UNL1        0.0015
@<TRIPOS>BOND
     1    22    23    3
     2    23    19    1
     3    19    15    1
     4    15    16   am
     5    16    17    2
     6     9    16    1
     7     9    10    1
     8    10    11    1
     9    11    12    1
    10    12    13    1
    11    13    14    1
    12    14     1    1
    13     1     2    2
    14     1     3   am
    15     3     4    1
    16     4     5    1
    17     5     6    1
    18     6    24    1
    19    24    25   ar
    20    25    26   ar
    21    26    29    1
    22    29    30   ar
    23    30    31   ar
    24    31    32   ar
    25    32    33   ar
    26    33    34   ar
    27    26    27   ar
    28    27    28   ar
    29     6     7    1
    30     7     8    1
    31    19    20    1
    32    20    21    1
    33    21    19    1
    34    14     9    1
    35     8     3    1
    36    28    24   ar
    37    34    29   ar
    38    15    18    1
@<TRIPOS>MOLECULE
*****
 34 38 0 0 0
SMALL
GASTEIGER

@<TRIPOS>ATOM
      1 C         142.1717  143.8408  162.3027 C.2     1  UNL1        0.2257
      2 O         140.8424  144.5294  162.2098 O.2     1  UNL1       -0.2749
      3 N         142.9143  143.4718  161.0528 N.am    1  UNL1       -0.2760
      4 C         144.2437  142.7832  161.1458 C.3     1  UNL1        0.1149
      5 C         144.9863  142.4143  159.8958 C.3     1  UNL1        0.1141
      6 N         144.3995  142.7339  158.5528 N.pl3   1  UNL1       -0.2846
      7 C         143.0701  143.4225  158.4598 C.3     1  UNL1        0.1141
      8 C         142.3275  143.7915  159.7098 C.3     1  UNL1        0.1149
      9 C         142.1787  142.4123  164.4729 C.3     1  UNL1        0.0851
     10 C         142.7654  142.0926  165.8158 C.3     1  UNL1        0.0096
     11 C         143.9320  142.8819  166.3316 C.3     1  UNL1        0.0005
     12 C         144.5119  143.9907  165.5044 C.3     1  UNL1        0.0005
     13 C         143.9252  144.3104  164.1615 C.3     1  UNL1        0.0096
     14 C         142.7585  143.5212  163.6457 C.3     1  UNL1        0.0853
     15 N         139.6150  142.1310  164.1585 N.am    1  UNL1       -0.2959
     16 C         141.0120  141.6231  163.9570 C.2     1  UNL1        0.2231
     17 O         141.2423  140.3260  163.2397 O.2     1  UNL1       -0.2751
     18 H         139.4639  142.9823  164.6293 H       1  UNL1        0.1502
     19 C         138.4483  141.3417  163.6426 C.3     1  UNL1        0.1364
     20 C         137.3522  140.8806  162.7284 C.3     1  UNL1        0.0353
     21 C         138.2462  142.0125  162.3163 C.3     1  UNL1        0.0353
     22 N         138.0425  139.4522  165.9372 N.1     1  UNL1       -0.1943
     23 C         138.2454  140.3969  164.7899 C.1     1  UNL1        0.0896
     24 C         145.1420  142.3649  157.3028 C.ar    1  UNL1        0.1631
     25 N         146.5599  142.7318  156.9788 N.ar    1  UNL1       -0.2240
     26 C         146.8913  142.1579  155.6331 C.ar    1  UNL1        0.0897
     27 C         145.6782  141.4363  155.1255 C.ar    1  UNL1        0.0572
     28 S         144.5971  141.5643  156.1574 S.2     1  UNL1       -0.0510
     29 C         148.2051  142.2836  154.9203 C.ar    1  UNL1        0.0182
     30 C         148.2959  143.0745  153.6490 C.ar    1  UNL1        0.0015
     31 C         149.6097  143.2002  152.9362 C.ar    1  UNL1        0.0000
     32 C         150.8326  142.5349  153.4946 C.ar    1  UNL1        0.0000
     33 C         150.7418  141.7440  154.7659 C.ar    1  UNL1        0.0000
     34 C         149.4280  141.6183  155.4787 C.ar    1  UNL1        0.0015
@<TRIPOS>BOND
     1    22    23    3
     2    23    19    1
     3    19    15    1
     4    15    16   am
     5    16    17    2
     6     9    16    1
     7     9    10    1
     8    10    11    1
     9    11    12    1
    10    12    13    1
    11    13    14    1
    12    14     1    1
    13     1     2    2
    14     1     3   am
    15     3     4    1
    16     4     5    1
    17     5     6    1
    18     6    24    1
    19    24    25   ar
    20    25    26   ar
    21    26    29    1
    22    29    30   ar
    23    30    31   ar
    24    31    32   ar
    25    32    33   ar
    26    33    34   ar
    27    26    27   ar
    28    27    28   ar
    29     6     7    1
    30     7     8    1
    31    19    20    1
    32    20    21    1
    33    21    19    1
    34    14     9    1
    35     8     3    1
    36    28    24   ar
    37    34    29   ar
    38    15    18    1
