@<TRIPOS>MOLECULE
*****
 38 42 0 0 0
SMALL
GASTEIGER

@<TRIPOS>ATOM
      1 C         140.1142  144.4259  163.3479 C.3     1  UNL1        0.1455
      2 C         141.4850  144.5650  163.9408 C.3     1  UNL1        0.1034
      3 N         142.6872  144.1161  163.1642 N.3     1  UNL1       -0.2689
      4 C         142.5186  143.5280  161.7946 C.3     1  UNL1        0.0737
      5 C         141.1478  143.3889  161.2017 C.3     1  UNL1        0.0356
      6 C         139.9456  143.8378  161.9784 C.3     1  UNL1        0.0846
      7 C         138.9311  144.8379  165.6240 C.3     1  UNL1        0.1741
      8 O         138.9120  144.8748  164.1246 O.3     1  UNL1       -0.3508
      9 N         138.5748  143.6987  161.3855 N.3     1  UNL1       -0.2915
     10 H         138.5285  144.3432  160.5963 H       1  UNL1        0.1236
     11 C         138.1067  142.3649  160.8833 C.3     1  UNL1        0.1152
     12 C         138.3271  141.1328  161.7100 C.ar    1  UNL1        0.0765
     13 C         138.8632  139.8864  161.0703 C.ar    1  UNL1        0.0193
     14 C         139.0836  138.6544  161.8970 C.ar    1  UNL1        0.0411
     15 C         138.7678  138.6687  163.3634 C.ar    1  UNL1        0.1708
     16 C         138.2317  139.9150  164.0030 C.ar    1  UNL1        0.1682
     17 N         138.0113  141.1471  163.1763 N.ar    1  UNL1       -0.2304
     18 N         137.9159  139.9294  165.4694 N.am    1  UNL1       -0.2639
     19 C         138.1363  138.6973  166.2961 C.2     1  UNL1        0.2718
     20 O         137.8206  138.7116  167.7623 O.2     1  UNL1       -0.2707
     21 C         138.6725  137.4509  165.6564 C.3     1  UNL1        0.2898
     22 O         138.9882  137.4366  164.1901 O.3     1  UNL1       -0.4628
     23 H         137.5641  140.7474  165.8892 H       1  UNL1        0.1565
     24 C         144.0580  144.2553  163.7571 C.3     1  UNL1        0.0970
     25 C         144.4622  143.3993  164.9208 C.3     1  UNL1        0.1263
     26 N         144.1100  141.9414  164.9375 N.ar    1  UNL1       -0.2941
     27 C         144.7859  140.9956  163.9896 C.ar    1  UNL1        0.2610
     28 O         145.8141  141.5077  163.0249 O.2     1  UNL1       -0.2670
     29 C         144.4336  139.5376  164.0063 C.ar    1  UNL1        0.0608
     30 C         143.4055  139.0255  164.9709 C.ar    1  UNL1        0.0063
     31 C         142.7295  139.9713  165.9189 C.ar    1  UNL1        0.0161
     32 C         141.7013  139.4592  166.8835 C.ar    1  UNL1        0.0021
     33 C         141.0254  140.4050  167.8314 C.ar    1  UNL1        0.0104
     34 C         141.3777  141.8629  167.8147 C.ar    1  UNL1        0.0699
     35 C         142.4058  142.3751  166.8501 C.ar    1  UNL1        0.0275
     36 C         143.0817  141.4293  165.9022 C.ar    1  UNL1        0.0631
     37 C         140.7017  142.8087  168.7627 C.1     1  UNL1        0.1005
     38 N         140.0258  143.7545  169.7106 N.1     1  UNL1       -0.1908
@<TRIPOS>BOND
     1     7     8    1
     2     1     8    1
     3     1     2    1
     4     2     3    1
     5     3    24    1
     6    24    25    1
     7    25    26    1
     8    26    27   ar
     9    27    28    2
    10    27    29   ar
    11    29    30   ar
    12    30    31   ar
    13    31    32   ar
    14    32    33   ar
    15    33    34   ar
    16    34    37    1
    17    37    38    3
    18    34    35   ar
    19    35    36   ar
    20     3     4    1
    21     4     5    1
    22     5     6    1
    23     6     9    1
    24     9    11    1
    25    11    12    1
    26    12    13   ar
    27    13    14   ar
    28    14    15   ar
    29    15    16   ar
    30    16    17   ar
    31    16    18    1
    32    18    19   am
    33    19    20    2
    34    19    21    1
    35    21    22    1
    36     6     1    1
    37    17    12   ar
    38    36    26   ar
    39    22    15    1
    40    36    31   ar
    41     9    10    1
    42    18    23    1
@<TRIPOS>MOLECULE
*****
 38 42 0 0 0
SMALL
GASTEIGER

@<TRIPOS>ATOM
      1 C         137.9667  140.3133  163.8469 C.3     1  UNL1        0.1455
      2 C         137.9712  141.7318  164.3345 C.3     1  UNL1        0.1034
      3 N         137.9320  142.8633  163.3506 N.3     1  UNL1       -0.2689
      4 C         137.8881  142.5763  161.8789 C.3     1  UNL1        0.0737
      5 C         137.8835  141.1578  161.3913 C.3     1  UNL1        0.0356
      6 C         137.9228  140.0263  162.3753 C.3     1  UNL1        0.0846
      7 C         138.2530  139.4598  166.2840 C.3     1  UNL1        0.1741
      8 O         138.0059  139.1818  164.8308 O.3     1  UNL1       -0.3508
      9 N         137.9182  138.6078  161.8876 N.3     1  UNL1       -0.2915
     10 H         137.3191  138.5821  161.0625 H       1  UNL1        0.1236
     11 C         139.2072  137.9411  161.5078 C.3     1  UNL1        0.1152
     12 C         140.4411  138.1714  162.3292 C.ar    1  UNL1        0.0765
     13 C         140.6645  137.3815  163.5847 C.ar    1  UNL1        0.0193
     14 C         141.8984  137.6118  164.4060 C.ar    1  UNL1        0.0411
     15 C         142.9088  138.6319  163.9718 C.ar    1  UNL1        0.1708
     16 C         142.6853  139.4217  162.7164 C.ar    1  UNL1        0.1682
     17 N         141.4514  139.1915  161.8950 N.ar    1  UNL1       -0.2304
     18 N         143.6957  140.4419  162.2821 N.am    1  UNL1       -0.2639
     19 C         144.9296  140.6722  163.1035 C.2     1  UNL1        0.2718
     20 O         145.9399  141.6922  162.6693 O.2     1  UNL1       -0.2707
     21 C         145.1530  139.8823  164.3590 C.3     1  UNL1        0.2898
     22 O         144.1426  138.8622  164.7931 O.3     1  UNL1       -0.4628
     23 H         143.5490  140.9603  161.4581 H       1  UNL1        0.1565
     24 C         137.9365  144.2818  163.8383 C.3     1  UNL1        0.0970
     25 C         138.9711  144.7317  164.8270 C.3     1  UNL1        0.1263
     26 N         140.4016  144.3131  164.6584 N.ar    1  UNL1       -0.2941
     27 C         141.2006  144.8242  163.4964 C.ar    1  UNL1        0.2610
     28 O         140.5691  145.7538  162.5028 O.2     1  UNL1       -0.2670
     29 C         142.6311  144.4057  163.3278 C.ar    1  UNL1        0.0608
     30 C         143.2627  143.4761  164.3212 C.ar    1  UNL1        0.0063
     31 C         142.4637  142.9650  165.4833 C.ar    1  UNL1        0.0161
     32 C         143.0952  142.0354  166.4768 C.ar    1  UNL1        0.0021
     33 C         142.2963  141.5243  167.6388 C.ar    1  UNL1        0.0104
     34 C         140.8657  141.9428  167.8074 C.ar    1  UNL1        0.0699
     35 C         140.2342  142.8724  166.8140 C.ar    1  UNL1        0.0275
     36 C         141.0332  143.3835  165.6519 C.ar    1  UNL1        0.0631
     37 C         140.0667  141.4317  168.9695 C.1     1  UNL1        0.1005
     38 N         139.2678  140.9206  170.1315 N.1     1  UNL1       -0.1908
@<TRIPOS>BOND
     1     7     8    1
     2     1     8    1
     3     1     2    1
     4     2     3    1
     5     3    24    1
     6    24    25    1
     7    25    26    1
     8    26    27   ar
     9    27    28    2
    10    27    29   ar
    11    29    30   ar
    12    30    31   ar
    13    31    32   ar
    14    32    33   ar
    15    33    34   ar
    16    34    37    1
    17    37    38    3
    18    34    35   ar
    19    35    36   ar
    20     3     4    1
    21     4     5    1
    22     5     6    1
    23     6     9    1
    24     9    11    1
    25    11    12    1
    26    12    13   ar
    27    13    14   ar
    28    14    15   ar
    29    15    16   ar
    30    16    17   ar
    31    16    18    1
    32    18    19   am
    33    19    20    2
    34    19    21    1
    35    21    22    1
    36     6     1    1
    37    17    12   ar
    38    36    26   ar
    39    22    15    1
    40    36    31   ar
    41     9    10    1
    42    18    23    1
@<TRIPOS>MOLECULE
*****
 38 42 0 0 0
SMALL
GASTEIGER

@<TRIPOS>ATOM
      1 C         138.2114  141.3432  160.8865 C.3     1  UNL1        0.1455
      2 C         138.1975  142.7289  161.4606 C.3     1  UNL1        0.1034
      3 N         137.9276  142.9326  162.9219 N.3     1  UNL1       -0.2689
      4 C         137.6715  141.7506  163.8093 C.3     1  UNL1        0.0737
      5 C         137.6855  140.3648  163.2352 C.3     1  UNL1        0.0356
      6 C         137.9554  140.1612  161.7738 C.3     1  UNL1        0.0846
      7 C         139.8787  141.2697  158.8953 C.3     1  UNL1        0.1741
      8 O         138.4814  141.1395  159.4252 O.3     1  UNL1       -0.3508
      9 N         137.9694  138.7755  161.1997 N.3     1  UNL1       -0.2915
     10 H         137.4541  138.8158  160.3203 H       1  UNL1        0.1236
     11 C         139.2753  138.0986  160.9056 C.3     1  UNL1        0.1152
     12 C         140.4373  138.2733  161.8380 C.ar    1  UNL1        0.0765
     13 C         140.5309  137.4426  163.0835 C.ar    1  UNL1        0.0193
     14 C         141.6929  137.6174  164.0159 C.ar    1  UNL1        0.0411
     15 C         142.7612  138.6227  163.7027 C.ar    1  UNL1        0.1708
     16 C         142.6675  139.4533  162.4572 C.ar    1  UNL1        0.1682
     17 N         141.5056  139.2786  161.5248 N.ar    1  UNL1       -0.2304
     18 N         143.7358  140.4587  162.1440 N.am    1  UNL1       -0.2639
     19 C         144.8978  140.6335  163.0764 C.2     1  UNL1        0.2718
     20 O         145.9660  141.6388  162.7633 O.2     1  UNL1       -0.2707
     21 C         144.9914  139.8028  164.3220 C.3     1  UNL1        0.2898
     22 O         143.9232  138.7975  164.6351 O.3     1  UNL1       -0.4628
     23 H         143.6743  141.0039  161.3266 H       1  UNL1        0.1565
     24 C         137.9136  144.3183  163.4960 C.3     1  UNL1        0.0970
     25 C         138.8705  144.6861  164.5912 C.3     1  UNL1        0.1263
     26 N         140.3318  144.3814  164.4440 N.ar    1  UNL1       -0.2941
     27 C         141.1535  145.1203  163.4297 C.ar    1  UNL1        0.2610
     28 O         140.5139  146.1640  162.5626 O.2     1  UNL1       -0.2670
     29 C         142.6148  144.8157  163.2825 C.ar    1  UNL1        0.0608
     30 C         143.2545  143.7721  164.1495 C.ar    1  UNL1        0.0063
     31 C         142.4328  143.0332  165.1639 C.ar    1  UNL1        0.0161
     32 C         143.0724  141.9896  166.0309 C.ar    1  UNL1        0.0021
     33 C         142.2507  141.2507  167.0452 C.ar    1  UNL1        0.0104
     34 C         140.7894  141.5554  167.1924 C.ar    1  UNL1        0.0699
     35 C         140.1497  142.5989  166.3254 C.ar    1  UNL1        0.0275
     36 C         140.9714  143.3378  165.3111 C.ar    1  UNL1        0.0631
     37 C         139.9677  140.8164  168.2068 C.1     1  UNL1        0.1005
     38 N         139.1460  140.0775  169.2211 N.1     1  UNL1       -0.1908
@<TRIPOS>BOND
     1     7     8    1
     2     1     8    1
     3     1     2    1
     4     2     3    1
     5     3    24    1
     6    24    25    1
     7    25    26    1
     8    26    27   ar
     9    27    28    2
    10    27    29   ar
    11    29    30   ar
    12    30    31   ar
    13    31    32   ar
    14    32    33   ar
    15    33    34   ar
    16    34    37    1
    17    37    38    3
    18    34    35   ar
    19    35    36   ar
    20     3     4    1
    21     4     5    1
    22     5     6    1
    23     6     9    1
    24     9    11    1
    25    11    12    1
    26    12    13   ar
    27    13    14   ar
    28    14    15   ar
    29    15    16   ar
    30    16    17   ar
    31    16    18    1
    32    18    19   am
    33    19    20    2
    34    19    21    1
    35    21    22    1
    36     6     1    1
    37    17    12   ar
    38    36    26   ar
    39    22    15    1
    40    36    31   ar
    41     9    10    1
    42    18    23    1
@<TRIPOS>MOLECULE
*****
 38 42 0 0 0
SMALL
GASTEIGER

@<TRIPOS>ATOM
      1 C         142.7650  143.8216  162.2459 C.3     1  UNL1        0.1455
      2 C         143.4715  142.5550  162.6286 C.3     1  UNL1        0.1034
      3 N         143.3871  142.0452  164.0367 N.3     1  UNL1       -0.2689
      4 C         142.5961  142.8019  165.0623 C.3     1  UNL1        0.0737
      5 C         141.8896  144.0686  164.6796 C.3     1  UNL1        0.0356
      6 C         141.9740  144.5784  163.2714 C.3     1  UNL1        0.0846
      7 C         142.7778  143.3718  159.6871 C.3     1  UNL1        0.1741
      8 O         142.8494  144.3315  160.8378 O.3     1  UNL1       -0.3508
      9 N         141.2675  145.8450  162.8887 N.3     1  UNL1       -0.2915
     10 H         141.8148  146.2735  162.1422 H       1  UNL1        0.1236
     11 C         139.8465  145.7961  162.4105 C.3     1  UNL1        0.1152
     12 C         139.1699  144.4734  162.2037 C.ar    1  UNL1        0.0765
     13 C         138.3180  143.8887  163.2911 C.ar    1  UNL1        0.0193
     14 C         137.6414  142.5660  163.0843 C.ar    1  UNL1        0.0411
     15 C         137.8168  141.8281  161.7901 C.ar    1  UNL1        0.1708
     16 C         138.6687  142.4128  160.7028 C.ar    1  UNL1        0.1682
     17 N         139.3453  143.7355  160.9096 N.ar    1  UNL1       -0.2304
     18 N         138.8440  141.6749  159.4086 N.am    1  UNL1       -0.2639
     19 C         138.1675  140.3522  159.2019 C.2     1  UNL1        0.2718
     20 O         138.3428  139.6143  157.9078 O.2     1  UNL1       -0.2707
     21 C         137.3155  139.7675  160.2892 C.3     1  UNL1        0.2898
     22 O         137.1402  140.5054  161.5833 O.3     1  UNL1       -0.4628
     23 H         139.4032  142.0587  158.6950 H       1  UNL1        0.1565
     24 C         144.0937  140.7785  164.4194 C.3     1  UNL1        0.0970
     25 C         143.3975  139.7596  165.2722 C.3     1  UNL1        0.1263
     26 N         142.1911  139.0397  164.7464 N.ar    1  UNL1       -0.2941
     27 C         142.2651  138.3080  163.4390 C.ar    1  UNL1        0.2610
     28 O         143.5453  138.2963  162.6574 O.2     1  UNL1       -0.2670
     29 C         141.0587  137.5881  162.9132 C.ar    1  UNL1        0.0608
     30 C         139.7785  137.5998  163.6947 C.ar    1  UNL1        0.0063
     31 C         139.7045  138.3315  165.0022 C.ar    1  UNL1        0.0161
     32 C         138.4243  138.3432  165.7837 C.ar    1  UNL1        0.0021
     33 C         138.3504  139.0749  167.0910 C.ar    1  UNL1        0.0104
     34 C         139.5567  139.7948  167.6168 C.ar    1  UNL1        0.0699
     35 C         140.8369  139.7831  166.8353 C.ar    1  UNL1        0.0275
     36 C         140.9109  139.0514  165.5280 C.ar    1  UNL1        0.0631
     37 C         139.4827  140.5265  168.9242 C.1     1  UNL1        0.1005
     38 N         139.4088  141.2581  170.2316 N.1     1  UNL1       -0.1908
@<TRIPOS>BOND
     1     7     8    1
     2     1     8    1
     3     1     2    1
     4     2     3    1
     5     3    24    1
     6    24    25    1
     7    25    26    1
     8    26    27   ar
     9    27    28    2
    10    27    29   ar
    11    29    30   ar
    12    30    31   ar
    13    31    32   ar
    14    32    33   ar
    15    33    34   ar
    16    34    37    1
    17    37    38    3
    18    34    35   ar
    19    35    36   ar
    20     3     4    1
    21     4     5    1
    22     5     6    1
    23     6     9    1
    24     9    11    1
    25    11    12    1
    26    12    13   ar
    27    13    14   ar
    28    14    15   ar
    29    15    16   ar
    30    16    17   ar
    31    16    18    1
    32    18    19   am
    33    19    20    2
    34    19    21    1
    35    21    22    1
    36     6     1    1
    37    17    12   ar
    38    36    26   ar
    39    22    15    1
    40    36    31   ar
    41     9    10    1
    42    18    23    1
@<TRIPOS>MOLECULE
*****
 38 42 0 0 0
SMALL
GASTEIGER

@<TRIPOS>ATOM
      1 C         143.5949  139.1069  162.3292 C.3     1  UNL1        0.1455
      2 C         142.3349  138.3525  162.6344 C.3     1  UNL1        0.1034
      3 N         141.8547  138.2363  164.0507 N.3     1  UNL1       -0.2689
      4 C         142.6345  138.8746  165.1618 C.3     1  UNL1        0.0737
      5 C         143.8945  139.6290  164.8566 C.3     1  UNL1        0.0356
      6 C         144.3747  139.7452  163.4402 C.3     1  UNL1        0.0846
      7 C         143.2721  139.9971  159.9098 C.3     1  UNL1        0.1741
      8 O         144.0751  139.2230  160.9129 O.3     1  UNL1       -0.3508
      9 N         145.6347  140.4996  163.1349 N.3     1  UNL1       -0.2915
     10 H         145.8032  140.3987  162.1340 H       1  UNL1        0.1236
     11 C         145.7251  141.9647  163.4437 C.3     1  UNL1        0.1152
     12 C         144.5308  142.8491  163.2403 C.ar    1  UNL1        0.0765
     13 C         143.8765  143.5085  164.4182 C.ar    1  UNL1        0.0193
     14 C         142.6822  144.3929  164.2148 C.ar    1  UNL1        0.0411
     15 C         142.1421  144.6179  162.8336 C.ar    1  UNL1        0.1708
     16 C         142.7963  143.9586  161.6558 C.ar    1  UNL1        0.1682
     17 N         143.9907  143.0742  161.8592 N.ar    1  UNL1       -0.2304
     18 N         142.2562  144.1836  160.2746 N.am    1  UNL1       -0.2639
     19 C         141.0619  145.0680  160.0712 C.2     1  UNL1        0.2718
     20 O         140.5218  145.2930  158.6900 O.2     1  UNL1       -0.2707
     21 C         140.4076  145.7274  161.2490 C.3     1  UNL1        0.2898
     22 O         140.9477  145.5023  162.6302 O.3     1  UNL1       -0.4628
     23 H         142.6857  143.7508  159.5016 H       1  UNL1        0.1565
     24 C         140.5947  137.4819  164.3559 C.3     1  UNL1        0.0970
     25 C         139.3741  138.2182  164.8231 C.3     1  UNL1        0.1263
     26 N         138.8854  139.4168  164.0652 N.ar    1  UNL1       -0.2941
     27 C         138.1713  139.2378  162.7583 C.ar    1  UNL1        0.2610
     28 O         137.9458  137.8602  162.2093 O.2     1  UNL1       -0.2670
     29 C         137.6825  140.4364  162.0004 C.ar    1  UNL1        0.0608
     30 C         137.9079  141.8140  162.5493 C.ar    1  UNL1        0.0063
     31 C         138.6221  141.9931  163.8562 C.ar    1  UNL1        0.0161
     32 C         138.8475  143.3707  164.4052 C.ar    1  UNL1        0.0021
     33 C         139.5616  143.5497  165.7120 C.ar    1  UNL1        0.0104
     34 C         140.0503  142.3510  166.4700 C.ar    1  UNL1        0.0699
     35 C         139.8249  140.9734  165.9210 C.ar    1  UNL1        0.0275
     36 C         139.1108  140.7945  164.6142 C.ar    1  UNL1        0.0631
     37 C         140.7645  142.5301  167.7769 C.1     1  UNL1        0.1005
     38 N         141.4786  142.7092  169.0838 N.1     1  UNL1       -0.1908
@<TRIPOS>BOND
     1     7     8    1
     2     1     8    1
     3     1     2    1
     4     2     3    1
     5     3    24    1
     6    24    25    1
     7    25    26    1
     8    26    27   ar
     9    27    28    2
    10    27    29   ar
    11    29    30   ar
    12    30    31   ar
    13    31    32   ar
    14    32    33   ar
    15    33    34   ar
    16    34    37    1
    17    37    38    3
    18    34    35   ar
    19    35    36   ar
    20     3     4    1
    21     4     5    1
    22     5     6    1
    23     6     9    1
    24     9    11    1
    25    11    12    1
    26    12    13   ar
    27    13    14   ar
    28    14    15   ar
    29    15    16   ar
    30    16    17   ar
    31    16    18    1
    32    18    19   am
    33    19    20    2
    34    19    21    1
    35    21    22    1
    36     6     1    1
    37    17    12   ar
    38    36    26   ar
    39    22    15    1
    40    36    31   ar
    41     9    10    1
    42    18    23    1
@<TRIPOS>MOLECULE
*****
 38 42 0 0 0
SMALL
GASTEIGER

@<TRIPOS>ATOM
      1 C         138.0901  142.1858  161.3365 C.3     1  UNL1        0.1455
      2 C         138.2392  140.6933  161.3472 C.3     1  UNL1        0.1034
      3 N         138.1256  139.9375  162.6379 N.3     1  UNL1       -0.2689
      4 C         137.8628  140.6743  163.9179 C.3     1  UNL1        0.0737
      5 C         137.7137  142.1668  163.9071 C.3     1  UNL1        0.0356
      6 C         137.8274  142.9226  162.6163 C.3     1  UNL1        0.0846
      7 C         138.8997  142.3200  158.8714 C.3     1  UNL1        0.1741
      8 O         138.2037  142.9416  160.0458 O.3     1  UNL1       -0.3508
      9 N         137.6783  144.4151  162.6056 N.3     1  UNL1       -0.2915
     10 H         137.0022  144.6488  163.3327 H       1  UNL1        0.1236
     11 C         138.8757  145.2901  162.8304 C.3     1  UNL1        0.1152
     12 C         140.2509  144.6910  162.8415 C.ar    1  UNL1        0.0765
     13 C         140.9387  144.4163  164.1459 C.ar    1  UNL1        0.0193
     14 C         142.3138  143.8172  164.1571 C.ar    1  UNL1        0.0411
     15 C         143.0011  143.4928  162.8638 C.ar    1  UNL1        0.1708
     16 C         142.3133  143.7676  161.5594 C.ar    1  UNL1        0.1682
     17 N         140.9381  144.3667  161.5483 N.ar    1  UNL1       -0.2304
     18 N         143.0006  143.4433  160.2661 N.am    1  UNL1       -0.2639
     19 C         144.3757  142.8442  160.2773 C.2     1  UNL1        0.2718
     20 O         145.0630  142.5199  158.9841 O.2     1  UNL1       -0.2707
     21 C         145.0635  142.5694  161.5817 C.3     1  UNL1        0.2898
     22 O         144.3762  142.8937  162.8749 O.3     1  UNL1       -0.4628
     23 H         142.5491  143.6236  159.4100 H       1  UNL1        0.1565
     24 C         138.2747  138.4450  162.6487 C.3     1  UNL1        0.0970
     25 C         139.3580  137.8054  163.4656 C.3     1  UNL1        0.1263
     26 N         140.7191  138.4325  163.5288 N.ar    1  UNL1       -0.2941
     27 C         141.6364  138.3549  162.3445 C.ar    1  UNL1        0.2610
     28 O         141.1925  137.6501  161.0970 O.2     1  UNL1       -0.2670
     29 C         142.9975  138.9821  162.4077 C.ar    1  UNL1        0.0608
     30 C         143.4414  139.6869  163.6552 C.ar    1  UNL1        0.0063
     31 C         142.5241  139.7645  164.8396 C.ar    1  UNL1        0.0161
     32 C         142.9679  140.4693  166.0870 C.ar    1  UNL1        0.0021
     33 C         142.0507  140.5469  167.2713 C.ar    1  UNL1        0.0104
     34 C         140.6896  139.9197  167.2081 C.ar    1  UNL1        0.0699
     35 C         140.2457  139.2150  165.9606 C.ar    1  UNL1        0.0275
     36 C         141.1630  139.1374  164.7764 C.ar    1  UNL1        0.0631
     37 C         139.7723  139.9974  168.3925 C.1     1  UNL1        0.1005
     38 N         138.8551  140.0750  169.5768 N.1     1  UNL1       -0.1908
@<TRIPOS>BOND
     1     7     8    1
     2     1     8    1
     3     1     2    1
     4     2     3    1
     5     3    24    1
     6    24    25    1
     7    25    26    1
     8    26    27   ar
     9    27    28    2
    10    27    29   ar
    11    29    30   ar
    12    30    31   ar
    13    31    32   ar
    14    32    33   ar
    15    33    34   ar
    16    34    37    1
    17    37    38    3
    18    34    35   ar
    19    35    36   ar
    20     3     4    1
    21     4     5    1
    22     5     6    1
    23     6     9    1
    24     9    11    1
    25    11    12    1
    26    12    13   ar
    27    13    14   ar
    28    14    15   ar
    29    15    16   ar
    30    16    17   ar
    31    16    18    1
    32    18    19   am
    33    19    20    2
    34    19    21    1
    35    21    22    1
    36     6     1    1
    37    17    12   ar
    38    36    26   ar
    39    22    15    1
    40    36    31   ar
    41     9    10    1
    42    18    23    1
@<TRIPOS>MOLECULE
*****
 38 42 0 0 0
SMALL
GASTEIGER

@<TRIPOS>ATOM
      1 C         138.7755  143.5088  161.5493 C.3     1  UNL1        0.1455
      2 C         138.5914  142.3258  160.6456 C.3     1  UNL1        0.1034
      3 N         137.8928  141.0981  161.1501 N.3     1  UNL1       -0.2689
      4 C         137.3783  141.0532  162.5585 C.3     1  UNL1        0.0737
      5 C         137.5624  142.2362  163.4622 C.3     1  UNL1        0.0356
      6 C         138.2610  143.4640  162.9576 C.3     1  UNL1        0.0846
      7 C         140.6979  144.6042  160.1875 C.3     1  UNL1        0.1741
      8 O         139.4741  144.7365  161.0448 O.3     1  UNL1       -0.3508
      9 N         138.4452  144.6469  163.8613 N.3     1  UNL1       -0.2915
     10 H         137.5868  144.7389  164.4045 H       1  UNL1        0.1236
     11 C         139.5818  144.6735  164.8398 C.3     1  UNL1        0.1152
     12 C         140.9572  144.2640  164.4030 C.ar    1  UNL1        0.0765
     13 C         141.8490  145.2512  163.7099 C.ar    1  UNL1        0.0193
     14 C         143.2243  144.8417  163.2731 C.ar    1  UNL1        0.0411
     15 C         143.7078  143.4450  163.5294 C.ar    1  UNL1        0.1708
     16 C         142.8161  142.4579  164.2224 C.ar    1  UNL1        0.1682
     17 N         141.4407  142.8674  164.6592 N.ar    1  UNL1       -0.2304
     18 N         143.2996  141.0613  164.4787 N.am    1  UNL1       -0.2639
     19 C         144.6750  140.6518  164.0419 C.2     1  UNL1        0.2718
     20 O         145.1585  139.2552  164.2981 O.2     1  UNL1       -0.2707
     21 C         145.5667  141.6390  163.3488 C.3     1  UNL1        0.2898
     22 O         145.0832  143.0356  163.0926 O.3     1  UNL1       -0.4628
     23 H         142.7143  140.4134  164.9336 H       1  UNL1        0.1565
     24 C         137.7086  139.9151  160.2464 C.3     1  UNL1        0.0970
     25 C         138.2132  138.5659  160.6649 C.3     1  UNL1        0.1263
     26 N         139.6579  138.3841  161.0252 N.ar    1  UNL1       -0.2941
     27 C         140.7077  138.4155  159.9543 C.ar    1  UNL1        0.2610
     28 O         140.3128  138.6287  158.5230 O.2     1  UNL1       -0.2670
     29 C         142.1523  138.2337  160.3147 C.ar    1  UNL1        0.0608
     30 C         142.5472  138.0205  161.7460 C.ar    1  UNL1        0.0063
     31 C         141.4974  137.9890  162.8169 C.ar    1  UNL1        0.0161
     32 C         141.8922  137.7758  164.2482 C.ar    1  UNL1        0.0021
     33 C         140.8424  137.7444  165.3191 C.ar    1  UNL1        0.0104
     34 C         139.3978  137.9262  164.9587 C.ar    1  UNL1        0.0699
     35 C         139.0029  138.1394  163.5275 C.ar    1  UNL1        0.0275
     36 C         140.0527  138.1708  162.4566 C.ar    1  UNL1        0.0631
     37 C         138.3479  137.8947  166.0297 C.1     1  UNL1        0.1005
     38 N         137.2982  137.8633  167.1007 N.1     1  UNL1       -0.1908
@<TRIPOS>BOND
     1     7     8    1
     2     1     8    1
     3     1     2    1
     4     2     3    1
     5     3    24    1
     6    24    25    1
     7    25    26    1
     8    26    27   ar
     9    27    28    2
    10    27    29   ar
    11    29    30   ar
    12    30    31   ar
    13    31    32   ar
    14    32    33   ar
    15    33    34   ar
    16    34    37    1
    17    37    38    3
    18    34    35   ar
    19    35    36   ar
    20     3     4    1
    21     4     5    1
    22     5     6    1
    23     6     9    1
    24     9    11    1
    25    11    12    1
    26    12    13   ar
    27    13    14   ar
    28    14    15   ar
    29    15    16   ar
    30    16    17   ar
    31    16    18    1
    32    18    19   am
    33    19    20    2
    34    19    21    1
    35    21    22    1
    36     6     1    1
    37    17    12   ar
    38    36    26   ar
    39    22    15    1
    40    36    31   ar
    41     9    10    1
    42    18    23    1
@<TRIPOS>MOLECULE
*****
 38 42 0 0 0
SMALL
GASTEIGER

@<TRIPOS>ATOM
      1 C         140.3469  138.0198  163.3380 C.3     1  UNL1        0.1455
      2 C         141.6784  138.2373  163.9936 C.3     1  UNL1        0.1034
      3 N         142.8525  138.6870  163.1757 N.3     1  UNL1       -0.2689
      4 C         142.6952  138.9194  161.7021 C.3     1  UNL1        0.0737
      5 C         141.3637  138.7019  161.0465 C.3     1  UNL1        0.0356
      6 C         140.1895  138.2521  161.8645 C.3     1  UNL1        0.0846
      7 C         138.6053  138.4711  165.2124 C.3     1  UNL1        0.1741
      8 O         139.1727  137.5700  164.1559 O.3     1  UNL1       -0.3508
      9 N         138.8580  138.0346  161.2089 N.3     1  UNL1       -0.2915
     10 H         138.5196  137.1255  161.5241 H       1  UNL1        0.1236
     11 C         137.7431  139.0130  161.4327 C.3     1  UNL1        0.1152
     12 C         138.0505  140.4676  161.6319 C.ar    1  UNL1        0.0765
     13 C         137.3870  141.2294  162.7407 C.ar    1  UNL1        0.0193
     14 C         137.6943  142.6840  162.9399 C.ar    1  UNL1        0.0411
     15 C         138.6652  143.3768  162.0302 C.ar    1  UNL1        0.1708
     16 C         139.3287  142.6150  160.9214 C.ar    1  UNL1        0.1682
     17 N         139.0213  141.1604  160.7222 N.ar    1  UNL1       -0.2304
     18 N         140.2995  143.3078  160.0117 N.am    1  UNL1       -0.2639
     19 C         140.6069  144.7624  160.2108 C.2     1  UNL1        0.2718
     20 O         141.5777  145.4552  159.3012 O.2     1  UNL1       -0.2707
     21 C         139.9434  145.5242  161.3197 C.3     1  UNL1        0.2898
     22 O         138.9726  144.8314  162.2293 O.3     1  UNL1       -0.4628
     23 H         140.7350  142.8078  159.2839 H       1  UNL1        0.1565
     24 C         144.1840  138.9045  163.8313 C.3     1  UNL1        0.0970
     25 C         144.4347  140.1530  164.6240 C.3     1  UNL1        0.1263
     26 N         143.8025  141.4471  164.2050 N.ar    1  UNL1       -0.2941
     27 C         144.4297  142.2716  163.1202 C.ar    1  UNL1        0.2610
     28 O         145.6893  141.8020  162.4545 O.2     1  UNL1       -0.2670
     29 C         143.7975  143.5657  162.7011 C.ar    1  UNL1        0.0608
     30 C         142.5380  144.0353  163.3668 C.ar    1  UNL1        0.0063
     31 C         141.9107  143.2108  164.4516 C.ar    1  UNL1        0.0161
     32 C         140.6512  143.6804  165.1173 C.ar    1  UNL1        0.0021
     33 C         140.0240  142.8559  166.2020 C.ar    1  UNL1        0.0104
     34 C         140.6562  141.5618  166.6211 C.ar    1  UNL1        0.0699
     35 C         141.9157  141.0922  165.9554 C.ar    1  UNL1        0.0275
     36 C         142.5429  141.9167  164.8707 C.ar    1  UNL1        0.0631
     37 C         140.0289  140.7373  167.7059 C.1     1  UNL1        0.1005
     38 N         139.4016  139.9128  168.7906 N.1     1  UNL1       -0.1908
@<TRIPOS>BOND
     1     7     8    1
     2     1     8    1
     3     1     2    1
     4     2     3    1
     5     3    24    1
     6    24    25    1
     7    25    26    1
     8    26    27   ar
     9    27    28    2
    10    27    29   ar
    11    29    30   ar
    12    30    31   ar
    13    31    32   ar
    14    32    33   ar
    15    33    34   ar
    16    34    37    1
    17    37    38    3
    18    34    35   ar
    19    35    36   ar
    20     3     4    1
    21     4     5    1
    22     5     6    1
    23     6     9    1
    24     9    11    1
    25    11    12    1
    26    12    13   ar
    27    13    14   ar
    28    14    15   ar
    29    15    16   ar
    30    16    17   ar
    31    16    18    1
    32    18    19   am
    33    19    20    2
    34    19    21    1
    35    21    22    1
    36     6     1    1
    37    17    12   ar
    38    36    26   ar
    39    22    15    1
    40    36    31   ar
    41     9    10    1
    42    18    23    1
@<TRIPOS>MOLECULE
*****
 38 42 0 0 0
SMALL
GASTEIGER

@<TRIPOS>ATOM
      1 C         138.1655  142.7192  161.9324 C.3     1  UNL1        0.1455
      2 C         137.9750  141.3525  162.5206 C.3     1  UNL1        0.1034
      3 N         138.0956  141.1500  164.0019 N.3     1  UNL1       -0.2689
      4 C         138.4067  142.3142  164.8952 C.3     1  UNL1        0.0737
      5 C         138.5971  143.6809  164.3071 C.3     1  UNL1        0.0356
      6 C         138.4765  143.8834  162.8257 C.3     1  UNL1        0.0846
      7 C         138.5899  141.8918  159.5065 C.3     1  UNL1        0.1741
      8 O         138.0449  142.9217  160.4511 O.3     1  UNL1       -0.3508
      9 N         138.6670  145.2501  162.2375 N.3     1  UNL1       -0.2915
     10 H         138.0163  145.8709  162.7187 H       1  UNL1        0.1236
     11 C         140.0137  145.9086  162.2910 C.3     1  UNL1        0.1152
     12 C         141.2387  145.0891  162.5701 C.ar    1  UNL1        0.0765
     13 C         142.2288  145.5469  163.5998 C.ar    1  UNL1        0.0193
     14 C         143.4538  144.7274  163.8788 C.ar    1  UNL1        0.0411
     15 C         143.6886  143.4501  163.1281 C.ar    1  UNL1        0.1708
     16 C         142.6986  142.9923  162.0985 C.ar    1  UNL1        0.1682
     17 N         141.4736  143.8118  161.8194 N.ar    1  UNL1       -0.2304
     18 N         142.9335  141.7150  161.3478 N.am    1  UNL1       -0.2639
     19 C         144.1585  140.8956  161.6269 C.2     1  UNL1        0.2718
     20 O         144.3934  139.6183  160.8763 O.2     1  UNL1       -0.2707
     21 C         145.1485  141.3534  162.6566 C.3     1  UNL1        0.2898
     22 O         144.9136  142.6306  163.4072 O.3     1  UNL1       -0.4628
     23 H         142.2837  141.4146  160.6720 H       1  UNL1        0.1565
     24 C         137.9052  139.7833  164.5900 C.3     1  UNL1        0.0970
     25 C         138.4737  139.4620  165.9405 C.3     1  UNL1        0.1263
     26 N         139.9521  139.2694  166.1053 N.ar    1  UNL1       -0.2941
     27 C         140.7050  138.3907  165.1509 C.ar    1  UNL1        0.2610
     28 O         139.9795  137.7045  164.0316 O.2     1  UNL1       -0.2670
     29 C         142.1834  138.1981  165.3158 C.ar    1  UNL1        0.0608
     30 C         142.9090  138.8842  166.4350 C.ar    1  UNL1        0.0063
     31 C         142.1561  139.7630  167.3895 C.ar    1  UNL1        0.0161
     32 C         142.8816  140.4491  168.5088 C.ar    1  UNL1        0.0021
     33 C         142.1287  141.3279  169.4632 C.ar    1  UNL1        0.0104
     34 C         140.6503  141.5205  169.2983 C.ar    1  UNL1        0.0699
     35 C         139.9248  140.8343  168.1791 C.ar    1  UNL1        0.0275
     36 C         140.6776  139.9556  167.2247 C.ar    1  UNL1        0.0631
     37 C         139.8974  142.3993  170.2528 C.1     1  UNL1        0.1005
     38 N         139.1446  143.2780  171.2073 N.1     1  UNL1       -0.1908
@<TRIPOS>BOND
     1     7     8    1
     2     1     8    1
     3     1     2    1
     4     2     3    1
     5     3    24    1
     6    24    25    1
     7    25    26    1
     8    26    27   ar
     9    27    28    2
    10    27    29   ar
    11    29    30   ar
    12    30    31   ar
    13    31    32   ar
    14    32    33   ar
    15    33    34   ar
    16    34    37    1
    17    37    38    3
    18    34    35   ar
    19    35    36   ar
    20     3     4    1
    21     4     5    1
    22     5     6    1
    23     6     9    1
    24     9    11    1
    25    11    12    1
    26    12    13   ar
    27    13    14   ar
    28    14    15   ar
    29    15    16   ar
    30    16    17   ar
    31    16    18    1
    32    18    19   am
    33    19    20    2
    34    19    21    1
    35    21    22    1
    36     6     1    1
    37    17    12   ar
    38    36    26   ar
    39    22    15    1
    40    36    31   ar
    41     9    10    1
    42    18    23    1
