@<TRIPOS>MOLECULE
*****
 20 22 0 0 0
SMALL
GASTEIGER

@<TRIPOS>ATOM
      1 C         142.1839  139.9908  167.0823 C.ar    1  UNL1        0.2601
      2 N         142.1366  140.2362  165.6033 N.ar    1  UNL1       -0.1856
      3 C         143.1385  139.3305  164.9508 C.ar    1  UNL1        0.2213
      4 N         143.8051  138.5252  166.0267 N.ar    1  UNL1       -0.0540
      5 O         143.2151  138.9334  167.3440 O.2     1  UNL1       -0.3324
      6 C         139.3285  140.6697  169.7536 C.ar    1  UNL1        0.0708
      7 C         139.6730  142.0631  170.1889 C.ar    1  UNL1        0.0399
      8 C         140.8544  142.7659  169.5886 C.ar    1  UNL1        0.1410
      9 F         141.1989  144.1594  170.0239 F       1  UNL1       -0.2041
     10 C         141.6914  142.0751  168.5531 C.ar    1  UNL1        0.0344
     11 C         141.3469  140.6817  168.1179 C.ar    1  UNL1        0.0590
     12 C         140.1655  139.9789  168.7181 C.ar    1  UNL1        0.0152
     13 N         136.9656  139.2642  170.9542 N.1     1  UNL1       -0.1908
     14 C         138.1470  139.9669  170.3539 C.1     1  UNL1        0.1005
     15 C         143.4239  139.2449  163.4807 C.ar    1  UNL1        0.1203
     16 C         144.0654  140.4013  162.7727 C.ar    1  UNL1        0.0224
     17 C         144.3507  140.3157  161.3026 C.ar    1  UNL1        0.0032
     18 C         143.9945  139.0738  160.5405 C.ar    1  UNL1        0.0207
     19 C         143.3530  137.9174  161.2485 C.ar    1  UNL1        0.0989
     20 N         143.0676  138.0030  162.7187 N.ar    1  UNL1       -0.2406
@<TRIPOS>BOND
     1    13    14    3
     2    14     6    1
     3     6     7   ar
     4     7     8   ar
     5     8     9    1
     6     8    10   ar
     7    10    11   ar
     8    11     1    1
     9     1     2   ar
    10     2     3   ar
    11     3    15    1
    12    15    16   ar
    13    16    17   ar
    14    17    18   ar
    15    18    19   ar
    16    19    20   ar
    17     3     4   ar
    18     4     5   ar
    19    11    12   ar
    20    12     6   ar
    21     5     1   ar
    22    20    15   ar
@<TRIPOS>MOLECULE
*****
 20 22 0 0 0
SMALL
GASTEIGER

@<TRIPOS>ATOM
      1 C         142.0593  142.1623  166.5258 C.ar    1  UNL1        0.2601
      2 N         141.1725  142.7066  165.4454 N.ar    1  UNL1       -0.1856
      3 C         142.0418  143.3945  164.4348 C.ar    1  UNL1        0.2213
      4 N         143.4659  143.2753  164.8907 N.ar    1  UNL1       -0.0540
      5 O         143.4767  142.5137  166.1830 O.2     1  UNL1       -0.3324
      6 C         141.9989  139.5206  169.4868 C.ar    1  UNL1        0.0708
      7 C         140.7053  139.8763  170.1577 C.ar    1  UNL1        0.0399
      8 C         139.8630  140.9940  169.6179 C.ar    1  UNL1        0.1410
      9 F         138.5694  141.3497  170.2888 F       1  UNL1       -0.2041
     10 C         140.3144  141.7560  168.4073 C.ar    1  UNL1        0.0344
     11 C         141.6079  141.4003  167.7365 C.ar    1  UNL1        0.0590
     12 C         142.4502  140.2826  168.2762 C.ar    1  UNL1        0.0152
     13 N         143.6834  137.2852  170.5663 N.1     1  UNL1       -0.1908
     14 C         142.8411  138.4029  170.0266 C.1     1  UNL1        0.1005
     15 C         141.5699  144.0810  163.1874 C.ar    1  UNL1        0.1203
     16 C         140.5250  145.1540  163.2714 C.ar    1  UNL1        0.0224
     17 C         140.0531  145.8405  162.0240 C.ar    1  UNL1        0.0032
     18 C         140.6261  145.4541  160.6927 C.ar    1  UNL1        0.0207
     19 C         141.6710  144.3812  160.6088 C.ar    1  UNL1        0.0989
     20 N         142.1429  143.6946  161.8562 N.ar    1  UNL1       -0.2406
@<TRIPOS>BOND
     1    13    14    3
     2    14     6    1
     3     6     7   ar
     4     7     8   ar
     5     8     9    1
     6     8    10   ar
     7    10    11   ar
     8    11     1    1
     9     1     2   ar
    10     2     3   ar
    11     3    15    1
    12    15    16   ar
    13    16    17   ar
    14    17    18   ar
    15    18    19   ar
    16    19    20   ar
    17     3     4   ar
    18     4     5   ar
    19    11    12   ar
    20    12     6   ar
    21     5     1   ar
    22    20    15   ar
@<TRIPOS>MOLECULE
*****
 20 22 0 0 0
SMALL
GASTEIGER

@<TRIPOS>ATOM
      1 C         141.2293  139.8002  166.5637 C.ar    1  UNL1        0.2601
      2 N         140.1190  140.1914  165.6340 N.ar    1  UNL1       -0.1856
      3 C         140.2106  139.3257  164.4124 C.ar    1  UNL1        0.2213
      4 N         141.3776  138.3995  164.5871 N.ar    1  UNL1       -0.0540
      5 O         142.0071  138.6928  165.9167 O.2     1  UNL1       -0.3324
      6 C         141.1846  142.3388  169.6138 C.ar    1  UNL1        0.0708
      7 C         142.0776  141.6281  170.5872 C.ar    1  UNL1        0.0399
      8 C         142.6877  140.3081  170.2195 C.ar    1  UNL1        0.1410
      9 F         143.5807  139.5974  171.1929 F       1  UNL1       -0.2041
     10 C         142.4050  139.6988  168.8783 C.ar    1  UNL1        0.0344
     11 C         141.5121  140.4095  167.9049 C.ar    1  UNL1        0.0590
     12 C         140.9019  141.7295  168.2727 C.ar    1  UNL1        0.0152
     13 N         139.9643  144.9789  170.3493 N.1     1  UNL1       -0.1908
     14 C         140.5744  143.6588  169.9816 C.1     1  UNL1        0.1005
     15 C         139.2959  139.3772  163.2247 C.ar    1  UNL1        0.1203
     16 C         138.6183  138.1278  162.7452 C.ar    1  UNL1        0.0224
     17 C         137.7037  138.1793  161.5574 C.ar    1  UNL1        0.0032
     18 C         137.4666  139.4802  160.8492 C.ar    1  UNL1        0.0207
     19 C         138.1442  140.7296  161.3288 C.ar    1  UNL1        0.0989
     20 N         139.0589  140.6781  162.5165 N.ar    1  UNL1       -0.2406
@<TRIPOS>BOND
     1    13    14    3
     2    14     6    1
     3     6     7   ar
     4     7     8   ar
     5     8     9    1
     6     8    10   ar
     7    10    11   ar
     8    11     1    1
     9     1     2   ar
    10     2     3   ar
    11     3    15    1
    12    15    16   ar
    13    16    17   ar
    14    17    18   ar
    15    18    19   ar
    16    19    20   ar
    17     3     4   ar
    18     4     5   ar
    19    11    12   ar
    20    12     6   ar
    21     5     1   ar
    22    20    15   ar
@<TRIPOS>MOLECULE
*****
 20 22 0 0 0
SMALL
GASTEIGER

@<TRIPOS>ATOM
      1 C         138.9890  139.1598  165.1307 C.ar    1  UNL1        0.2601
      2 N         139.8288  140.0502  165.9978 N.ar    1  UNL1       -0.1856
      3 C         139.3686  139.8844  167.4158 C.ar    1  UNL1        0.2213
      4 N         138.2443  138.8914  167.4250 N.ar    1  UNL1       -0.0540
      5 O         138.0097  138.4436  166.0128 O.2     1  UNL1       -0.3324
      6 C         140.5144  138.3909  161.5486 C.ar    1  UNL1        0.0708
      7 C         139.3450  138.7152  160.6669 C.ar    1  UNL1        0.0399
      8 C         138.0569  139.1877  161.2732 C.ar    1  UNL1        0.1410
      9 F         136.8875  139.5120  160.3915 F       1  UNL1       -0.2041
     10 C         137.9382  139.3359  162.7611 C.ar    1  UNL1        0.0344
     11 C         139.1076  139.0116  163.6427 C.ar    1  UNL1        0.0590
     12 C         140.3957  138.5391  163.0365 C.ar    1  UNL1        0.0152
     13 N         143.0906  137.4459  160.3360 N.1     1  UNL1       -0.1908
     14 C         141.8025  137.9184  160.9423 C.1     1  UNL1        0.1005
     15 C         139.9334  140.5879  168.6141 C.ar    1  UNL1        0.1203
     16 C         140.3542  142.0240  168.5114 C.ar    1  UNL1        0.0224
     17 C         140.9191  142.7276  169.7097 C.ar    1  UNL1        0.0032
     18 C         141.0632  141.9950  171.0107 C.ar    1  UNL1        0.0207
     19 C         140.6424  140.5589  171.1134 C.ar    1  UNL1        0.0989
     20 N         140.0775  139.8553  169.9151 N.ar    1  UNL1       -0.2406
@<TRIPOS>BOND
     1    13    14    3
     2    14     6    1
     3     6     7   ar
     4     7     8   ar
     5     8     9    1
     6     8    10   ar
     7    10    11   ar
     8    11     1    1
     9     1     2   ar
    10     2     3   ar
    11     3    15    1
    12    15    16   ar
    13    16    17   ar
    14    17    18   ar
    15    18    19   ar
    16    19    20   ar
    17     3     4   ar
    18     4     5   ar
    19    11    12   ar
    20    12     6   ar
    21     5     1   ar
    22    20    15   ar
@<TRIPOS>MOLECULE
*****
 20 22 0 0 0
SMALL
GASTEIGER

@<TRIPOS>ATOM
      1 C         138.7356  140.5059  165.4285 C.ar    1  UNL1        0.2601
      2 N         139.7530  141.0150  166.4062 N.ar    1  UNL1       -0.1856
      3 C         139.6531  140.1866  167.6526 C.ar    1  UNL1        0.2213
      4 N         138.5741  139.1654  167.4453 N.ar    1  UNL1       -0.0540
      5 O         138.0070  139.3628  166.0707 O.2     1  UNL1       -0.3324
      6 C         138.5822  143.0110  162.3542 C.ar    1  UNL1        0.0708
      7 C         137.9989  142.1239  161.2946 C.ar    1  UNL1        0.0399
      8 C         137.6612  140.6975  161.6129 C.ar    1  UNL1        0.1410
      9 F         137.0778  139.8105  160.5532 F       1  UNL1       -0.2041
     10 C         137.9067  140.1582  162.9908 C.ar    1  UNL1        0.0344
     11 C         138.4900  141.0452  164.0504 C.ar    1  UNL1        0.0590
     12 C         138.8278  142.4716  163.7321 C.ar    1  UNL1        0.0152
     13 N         139.2577  145.8638  161.7176 N.1     1  UNL1       -0.1908
     14 C         138.9199  144.4374  162.0359 C.1     1  UNL1        0.1005
     15 C         140.4861  140.3505  168.8893 C.ar    1  UNL1        0.1203
     16 C         141.7774  139.6000  169.0287 C.ar    1  UNL1        0.0224
     17 C         142.6103  139.7639  170.2654 C.ar    1  UNL1        0.0032
     18 C         142.1519  140.6783  171.3626 C.ar    1  UNL1        0.0207
     19 C         140.8607  141.4287  171.2231 C.ar    1  UNL1        0.0989
     20 N         140.0277  141.2648  169.9865 N.ar    1  UNL1       -0.2406
@<TRIPOS>BOND
     1    13    14    3
     2    14     6    1
     3     6     7   ar
     4     7     8   ar
     5     8     9    1
     6     8    10   ar
     7    10    11   ar
     8    11     1    1
     9     1     2   ar
    10     2     3   ar
    11     3    15    1
    12    15    16   ar
    13    16    17   ar
    14    17    18   ar
    15    18    19   ar
    16    19    20   ar
    17     3     4   ar
    18     4     5   ar
    19    11    12   ar
    20    12     6   ar
    21     5     1   ar
    22    20    15   ar
@<TRIPOS>MOLECULE
*****
 20 22 0 0 0
SMALL
GASTEIGER

@<TRIPOS>ATOM
      1 C         142.6734  141.5267  166.2851 C.ar    1  UNL1        0.2601
      2 N         142.4218  140.3437  165.3979 N.ar    1  UNL1       -0.1856
      3 C         143.0688  140.6129  164.0717 C.ar    1  UNL1        0.2213
      4 N         143.7203  141.9624  164.1392 N.ar    1  UNL1       -0.0540
      5 O         143.4760  142.5271  165.5072 O.2     1  UNL1       -0.3324
      6 C         140.4734  141.1645  169.5682 C.ar    1  UNL1        0.0708
      7 C         141.2675  141.9926  170.5344 C.ar    1  UNL1        0.0399
      8 C         142.5303  142.6654  170.0842 C.ar    1  UNL1        0.1410
      9 F         143.3244  143.4936  171.0504 F       1  UNL1       -0.2041
     10 C         142.9989  142.5101  168.6678 C.ar    1  UNL1        0.0344
     11 C         142.2048  141.6820  167.7016 C.ar    1  UNL1        0.0590
     12 C         140.9420  141.0092  168.1518 C.ar    1  UNL1        0.0152
     13 N         137.9478  139.8189  170.4686 N.1     1  UNL1       -0.1908
     14 C         139.2106  140.4917  170.0184 C.1     1  UNL1        0.1005
     15 C         143.0650  139.6941  162.8860 C.ar    1  UNL1        0.1203
     16 C         141.9949  138.6519  162.7483 C.ar    1  UNL1        0.0224
     17 C         141.9911  137.7331  161.5627 C.ar    1  UNL1        0.0032
     18 C         143.0573  137.8564  160.5148 C.ar    1  UNL1        0.0207
     19 C         144.1273  138.8986  160.6526 C.ar    1  UNL1        0.0989
     20 N         144.1312  139.8174  161.8382 N.ar    1  UNL1       -0.2406
@<TRIPOS>BOND
     1    13    14    3
     2    14     6    1
     3     6     7   ar
     4     7     8   ar
     5     8     9    1
     6     8    10   ar
     7    10    11   ar
     8    11     1    1
     9     1     2   ar
    10     2     3   ar
    11     3    15    1
    12    15    16   ar
    13    16    17   ar
    14    17    18   ar
    15    18    19   ar
    16    19    20   ar
    17     3     4   ar
    18     4     5   ar
    19    11    12   ar
    20    12     6   ar
    21     5     1   ar
    22    20    15   ar
@<TRIPOS>MOLECULE
*****
 20 22 0 0 0
SMALL
GASTEIGER

@<TRIPOS>ATOM
      1 C         139.2035  142.4739  163.6353 C.ar    1  UNL1        0.2601
      2 N         140.3108  142.8289  162.6876 N.ar    1  UNL1       -0.1856
      3 C         139.6988  143.4795  161.4826 C.ar    1  UNL1        0.2213
      4 N         138.2132  143.5266  161.6855 N.ar    1  UNL1       -0.0540
      5 O         137.9072  142.9051  163.0159 O.2     1  UNL1       -0.3324
      6 C         138.7164  139.9169  166.6310 C.ar    1  UNL1        0.0708
      7 C         139.6862  140.4675  167.6342 C.ar    1  UNL1        0.0399
      8 C         140.4951  141.6869  167.3044 C.ar    1  UNL1        0.1410
      9 F         141.4649  142.2374  168.3076 F       1  UNL1       -0.2041
     10 C         140.3342  142.3557  165.9714 C.ar    1  UNL1        0.0344
     11 C         139.3644  141.8051  164.9683 C.ar    1  UNL1        0.0590
     12 C         138.5555  140.5857  165.2981 C.ar    1  UNL1        0.0152
     13 N         137.0985  137.4782  167.2907 N.1     1  UNL1       -0.1908
     14 C         137.9074  138.6976  166.9608 C.1     1  UNL1        0.1005
     15 C         140.4417  143.9929  160.2849 C.ar    1  UNL1        0.1203
     16 C         141.7238  143.3397  159.8609 C.ar    1  UNL1        0.0224
     17 C         142.4667  143.8531  158.6632 C.ar    1  UNL1        0.0032
     18 C         141.9277  145.0197  157.8896 C.ar    1  UNL1        0.0207
     19 C         140.6457  145.6729  158.3136 C.ar    1  UNL1        0.0989
     20 N         139.9027  145.1595  159.5113 N.ar    1  UNL1       -0.2406
@<TRIPOS>BOND
     1    13    14    3
     2    14     6    1
     3     6     7   ar
     4     7     8   ar
     5     8     9    1
     6     8    10   ar
     7    10    11   ar
     8    11     1    1
     9     1     2   ar
    10     2     3   ar
    11     3    15    1
    12    15    16   ar
    13    16    17   ar
    14    17    18   ar
    15    18    19   ar
    16    19    20   ar
    17     3     4   ar
    18     4     5   ar
    19    11    12   ar
    20    12     6   ar
    21     5     1   ar
    22    20    15   ar
@<TRIPOS>MOLECULE
*****
 20 22 0 0 0
SMALL
GASTEIGER

@<TRIPOS>ATOM
      1 C         141.7949  141.2605  165.7436 C.ar    1  UNL1        0.2601
      2 N         141.3000  142.4944  165.0489 N.ar    1  UNL1       -0.1856
      3 C         141.6537  142.3816  163.5956 C.ar    1  UNL1        0.2213
      4 N         142.3673  141.0780  163.3921 N.ar    1  UNL1       -0.0540
      5 O         142.4545  140.3851  164.7196 O.2     1  UNL1       -0.3324
      6 C         140.7187  141.5646  169.5514 C.ar    1  UNL1        0.0708
      7 C         141.3745  140.3457  170.1295 C.ar    1  UNL1        0.0399
      8 C         142.1705  139.4318  169.2457 C.ar    1  UNL1        0.1410
      9 F         142.8263  138.2129  169.8239 F       1  UNL1       -0.2041
     10 C         142.3106  139.7367  167.7837 C.ar    1  UNL1        0.0344
     11 C         141.6548  140.9555  167.2056 C.ar    1  UNL1        0.0590
     12 C         140.8588  141.8695  168.0894 C.ar    1  UNL1        0.0152
     13 N         139.1268  143.3925  171.3190 N.1     1  UNL1       -0.1908
     14 C         139.9228  142.4785  170.4352 C.1     1  UNL1        0.1005
     15 C         141.3477  143.3946  162.5325 C.ar    1  UNL1        0.1203
     16 C         140.4902  144.5828  162.8533 C.ar    1  UNL1        0.0224
     17 C         140.1841  145.5958  161.7902 C.ar    1  UNL1        0.0032
     18 C         140.7355  145.4205  160.4063 C.ar    1  UNL1        0.0207
     19 C         141.5930  144.2323  160.0855 C.ar    1  UNL1        0.0989
     20 N         141.8991  143.2194  161.1486 N.ar    1  UNL1       -0.2406
@<TRIPOS>BOND
     1    13    14    3
     2    14     6    1
     3     6     7   ar
     4     7     8   ar
     5     8     9    1
     6     8    10   ar
     7    10    11   ar
     8    11     1    1
     9     1     2   ar
    10     2     3   ar
    11     3    15    1
    12    15    16   ar
    13    16    17   ar
    14    17    18   ar
    15    18    19   ar
    16    19    20   ar
    17     3     4   ar
    18     4     5   ar
    19    11    12   ar
    20    12     6   ar
    21     5     1   ar
    22    20    15   ar
@<TRIPOS>MOLECULE
*****
 20 22 0 0 0
SMALL
GASTEIGER

@<TRIPOS>ATOM
      1 C         140.1288  139.5395  165.5974 C.ar    1  UNL1        0.2601
      2 N         141.2376  139.4051  164.5962 N.ar    1  UNL1       -0.1856
      3 C         140.6542  138.8517  163.3299 C.ar    1  UNL1        0.2213
      4 N         139.1848  138.6441  163.5485 N.ar    1  UNL1       -0.0540
      5 O         138.8601  139.0692  164.9499 O.2     1  UNL1       -0.3324
      6 C         141.6534  141.2787  168.8224 C.ar    1  UNL1        0.0708
      7 C         140.5369  141.0827  169.8047 C.ar    1  UNL1        0.0399
      8 C         139.2843  140.3724  169.3846 C.ar    1  UNL1        0.1410
      9 F         138.1678  140.1765  170.3670 F       1  UNL1       -0.2041
     10 C         139.1483  139.8580  167.9822 C.ar    1  UNL1        0.0344
     11 C         140.2648  140.0539  166.9999 C.ar    1  UNL1        0.0590
     12 C         141.5173  140.7643  167.4200 C.ar    1  UNL1        0.0152
     13 N         144.1585  142.6993  169.6627 N.1     1  UNL1       -0.1908
     14 C         142.9060  141.9890  169.2425 C.1     1  UNL1        0.1005
     15 C         141.4079  138.5576  162.0668 C.ar    1  UNL1        0.1203
     16 C         142.8302  138.0859  162.1346 C.ar    1  UNL1        0.0224
     17 C         143.5839  137.7918  160.8715 C.ar    1  UNL1        0.0032
     18 C         142.9152  137.9693  159.5406 C.ar    1  UNL1        0.0207
     19 C         141.4929  138.4410  159.4728 C.ar    1  UNL1        0.0989
     20 N         140.7393  138.7351  160.7359 N.ar    1  UNL1       -0.2406
@<TRIPOS>BOND
     1    13    14    3
     2    14     6    1
     3     6     7   ar
     4     7     8   ar
     5     8     9    1
     6     8    10   ar
     7    10    11   ar
     8    11     1    1
     9     1     2   ar
    10     2     3   ar
    11     3    15    1
    12    15    16   ar
    13    16    17   ar
    14    17    18   ar
    15    18    19   ar
    16    19    20   ar
    17     3     4   ar
    18     4     5   ar
    19    11    12   ar
    20    12     6   ar
    21     5     1   ar
    22    20    15   ar
