@<TRIPOS>MOLECULE
*****
 25 26 0 0 0
SMALL
GASTEIGER

@<TRIPOS>ATOM
      1 C         140.1496  140.3043  167.8591 C.ar    1  UNL1        0.1349
      2 N         138.9214  139.7837  168.5450 N.ar    1  UNL1       -0.1992
      3 C         138.7163  140.0359  170.0094 C.ar    1  UNL1        0.2148
      4 N         137.4881  139.5153  170.6953 N.pl3   1  UNL1       -0.3274
      5 N         139.7395  140.8086  170.7878 N.ar    1  UNL1       -0.2138
      6 C         140.9678  141.3292  170.1019 C.ar    1  UNL1        0.0890
      7 C         141.9909  142.1020  170.8803 C.ar    1  UNL1        0.0194
      8 C         143.2191  142.6225  170.1944 C.ar    1  UNL1        0.0039
      9 C         143.4241  142.3703  168.7300 C.ar    1  UNL1        0.0298
     10 C         142.4010  141.5976  167.9516 C.ar    1  UNL1        0.1442
     11 F         142.6060  141.3455  166.4872 F       1  UNL1       -0.2040
     12 C         141.1728  141.0771  168.6375 C.ar    1  UNL1        0.0766
     13 H         136.8165  139.0081  170.1843 H       1  UNL1        0.1452
     14 H         137.3535  139.6808  171.6564 H       1  UNL1        0.1452
     15 N         140.3546  140.0521  166.3947 N.pl3   1  UNL1       -0.3195
     16 H         141.0170  139.3871  166.0977 H       1  UNL1        0.1481
     17 C         139.5504  140.8131  165.3828 C.3     1  UNL1        0.0729
     18 C         140.0333  142.1445  164.8885 C.3     1  UNL1        0.0196
     19 C         139.9085  143.3586  165.7606 C.3     1  UNL1        0.0017
     20 C         137.7350  144.2313  164.6363 C.3     1  UNL1        0.0000
     21 C         139.0346  144.5010  165.3352 C.3     1  UNL1        0.0001
     22 C         138.2632  140.2428  164.8651 C.3     1  UNL1        0.0512
     23 C         137.8639  140.4678  163.4369 C.3     1  UNL1        0.1389
     24 O         136.6378  141.2712  163.1186 O.3     1  UNL1       -0.3819
     25 H         135.8513  140.7997  163.4347 H       1  UNL1        0.2104
@<TRIPOS>BOND
     1    20    21    1
     2    21    19    1
     3    19    18    1
     4    17    18    1
     5    17    22    1
     6    22    23    1
     7    23    24    1
     8    17    15    1
     9    15     1    1
    10     1     2   ar
    11     2     3   ar
    12     3     4    1
    13     3     5   ar
    14     5     6   ar
    15     6     7   ar
    16     7     8   ar
    17     8     9   ar
    18     9    10   ar
    19    10    11    1
    20    10    12   ar
    21    12     1   ar
    22    12     6   ar
    23    24    25    1
    24    15    16    1
    25     4    13    1
    26     4    14    1
@<TRIPOS>MOLECULE
*****
 25 26 0 0 0
SMALL
GASTEIGER

@<TRIPOS>ATOM
      1 C         139.0298  139.8273  165.2295 C.ar    1  UNL1        0.1349
      2 N         138.0951  138.7280  165.6392 N.ar    1  UNL1       -0.1992
      3 C         137.8456  138.4590  167.0937 C.ar    1  UNL1        0.2148
      4 N         136.9108  137.3597  167.5034 N.pl3   1  UNL1       -0.3274
      5 N         138.5307  139.2892  168.1383 N.ar    1  UNL1       -0.2138
      6 C         139.4655  140.3885  167.7285 C.ar    1  UNL1        0.0890
      7 C         140.1506  141.2186  168.7732 C.ar    1  UNL1        0.0194
      8 C         141.0853  142.3179  168.3634 C.ar    1  UNL1        0.0039
      9 C         141.3349  142.5869  166.9090 C.ar    1  UNL1        0.0298
     10 C         140.6497  141.7568  165.8644 C.ar    1  UNL1        0.1442
     11 F         140.8993  142.0258  164.4099 F       1  UNL1       -0.2040
     12 C         139.7150  140.6575  166.2741 C.ar    1  UNL1        0.0766
     13 H         136.4611  136.8148  166.8177 H       1  UNL1        0.1452
     14 H         136.7470  137.1831  168.4580 H       1  UNL1        0.1452
     15 N         139.2794  140.0963  163.7750 N.pl3   1  UNL1       -0.3195
     16 H         140.1724  139.9391  163.3915 H       1  UNL1        0.1481
     17 C         138.1684  140.6050  162.9050 C.3     1  UNL1        0.0729
     18 C         137.4129  141.8397  163.2985 C.3     1  UNL1        0.0196
     19 C         137.7721  143.1638  162.6920 C.3     1  UNL1        0.0017
     20 C         138.2096  144.4072  164.9309 C.3     1  UNL1        0.0000
     21 C         138.5503  144.1677  163.4899 C.3     1  UNL1        0.0001
     22 C         137.8129  139.8789  161.6415 C.3     1  UNL1        0.0512
     23 C         137.6642  138.3863  161.6506 C.3     1  UNL1        0.1389
     24 O         138.4696  137.5583  162.6074 O.3     1  UNL1       -0.3819
     25 H         139.4104  137.6263  162.3812 H       1  UNL1        0.2104
@<TRIPOS>BOND
     1    20    21    1
     2    21    19    1
     3    19    18    1
     4    17    18    1
     5    17    22    1
     6    22    23    1
     7    23    24    1
     8    17    15    1
     9    15     1    1
    10     1     2   ar
    11     2     3   ar
    12     3     4    1
    13     3     5   ar
    14     5     6   ar
    15     6     7   ar
    16     7     8   ar
    17     8     9   ar
    18     9    10   ar
    19    10    11    1
    20    10    12   ar
    21    12     1   ar
    22    12     6   ar
    23    24    25    1
    24    15    16    1
    25     4    13    1
    26     4    14    1
@<TRIPOS>MOLECULE
*****
 25 26 0 0 0
SMALL
GASTEIGER

@<TRIPOS>ATOM
      1 C         140.4054  140.4869  165.6473 C.ar    1  UNL1        0.1349
      2 N         140.0996  139.1457  165.0493 N.ar    1  UNL1       -0.1992
      3 C         138.9715  139.0001  164.0715 C.ar    1  UNL1        0.2148
      4 N         138.6657  137.6589  163.4734 N.pl3   1  UNL1       -0.3274
      5 N         138.1493  140.1958  163.6916 N.ar    1  UNL1       -0.2138
      6 C         138.4551  141.5370  164.2896 C.ar    1  UNL1        0.0890
      7 C         137.6328  142.7327  163.9098 C.ar    1  UNL1        0.0194
      8 C         137.9387  144.0738  164.5078 C.ar    1  UNL1        0.0039
      9 C         139.0668  144.2194  165.4856 C.ar    1  UNL1        0.0298
     10 C         139.8890  143.0238  165.8655 C.ar    1  UNL1        0.1442
     11 F         141.0171  143.1693  166.8434 F       1  UNL1       -0.2040
     12 C         139.5832  141.6826  165.2675 C.ar    1  UNL1        0.0766
     13 H         139.2054  136.8741  163.7228 H       1  UNL1        0.1452
     14 H         137.9253  137.5633  162.8316 H       1  UNL1        0.1452
     15 N         141.5335  140.6324  166.6252 N.pl3   1  UNL1       -0.3195
     16 H         142.3553  141.1064  166.3618 H       1  UNL1        0.1481
     17 C         141.4097  140.0558  168.0044 C.3     1  UNL1        0.0729
     18 C         140.0876  140.0825  168.7125 C.3     1  UNL1        0.0196
     19 C         139.6019  141.3521  169.3468 C.3     1  UNL1        0.0017
     20 C         140.4765  143.7372  169.8912 C.3     1  UNL1        0.0000
     21 C         140.5672  142.2498  170.0626 C.3     1  UNL1        0.0001
     22 C         142.6079  139.4526  168.6756 C.3     1  UNL1        0.0512
     23 C         142.5325  139.0403  170.1158 C.3     1  UNL1        0.1389
     24 O         143.4987  139.6113  171.1109 O.3     1  UNL1       -0.3819
     25 H         144.3958  139.3073  170.9017 H       1  UNL1        0.2104
@<TRIPOS>BOND
     1    20    21    1
     2    21    19    1
     3    19    18    1
     4    17    18    1
     5    17    22    1
     6    22    23    1
     7    23    24    1
     8    17    15    1
     9    15     1    1
    10     1     2   ar
    11     2     3   ar
    12     3     4    1
    13     3     5   ar
    14     5     6   ar
    15     6     7   ar
    16     7     8   ar
    17     8     9   ar
    18     9    10   ar
    19    10    11    1
    20    10    12   ar
    21    12     1   ar
    22    12     6   ar
    23    24    25    1
    24    15    16    1
    25     4    13    1
    26     4    14    1
@<TRIPOS>MOLECULE
*****
 25 26 0 0 0
SMALL
GASTEIGER

@<TRIPOS>ATOM
      1 C         139.5616  140.4520  167.4604 C.ar    1  UNL1        0.1349
      2 N         138.6969  139.3603  168.0175 N.ar    1  UNL1       -0.1992
      3 C         137.7856  138.5885  167.1098 C.ar    1  UNL1        0.2148
      4 N         136.9208  137.4968  167.6669 N.pl3   1  UNL1       -0.3274
      5 N         137.7390  138.9085  165.6451 N.ar    1  UNL1       -0.2138
      6 C         138.6038  140.0002  165.0880 C.ar    1  UNL1        0.0890
      7 C         138.5572  140.3202  163.6233 C.ar    1  UNL1        0.0194
      8 C         139.4219  141.4119  163.0662 C.ar    1  UNL1        0.0039
      9 C         140.3332  142.1837  163.9739 C.ar    1  UNL1        0.0298
     10 C         140.3798  141.8637  165.4386 C.ar    1  UNL1        0.1442
     11 F         141.2911  142.6355  166.3463 F       1  UNL1       -0.2040
     12 C         139.5151  140.7720  165.9957 C.ar    1  UNL1        0.0766
     13 H         136.9513  137.2868  168.6283 H       1  UNL1        0.1452
     14 H         136.3226  136.9902  167.0712 H       1  UNL1        0.1452
     15 N         140.4729  141.2238  168.3681 N.pl3   1  UNL1       -0.3195
     16 H         140.2510  142.1502  168.6167 H       1  UNL1        0.1481
     17 C         141.7223  140.5841  168.8971 C.3     1  UNL1        0.0729
     18 C         142.8696  140.3020  167.9729 C.3     1  UNL1        0.0196
     19 C         142.9034  139.0243  167.1876 C.3     1  UNL1        0.0017
     20 C         141.9363  138.0850  164.9668 C.3     1  UNL1        0.0000
     21 C         142.8151  139.0615  165.6907 C.3     1  UNL1        0.0001
     22 C         141.8244  140.2265  170.3503 C.3     1  UNL1        0.0512
     23 C         140.6406  140.4106  171.2530 C.3     1  UNL1        0.1389
     24 O         139.3503  139.7083  170.9501 O.3     1  UNL1       -0.3819
     25 H         138.9796  140.0551  170.1236 H       1  UNL1        0.2104
@<TRIPOS>BOND
     1    20    21    1
     2    21    19    1
     3    19    18    1
     4    17    18    1
     5    17    22    1
     6    22    23    1
     7    23    24    1
     8    17    15    1
     9    15     1    1
    10     1     2   ar
    11     2     3   ar
    12     3     4    1
    13     3     5   ar
    14     5     6   ar
    15     6     7   ar
    16     7     8   ar
    17     8     9   ar
    18     9    10   ar
    19    10    11    1
    20    10    12   ar
    21    12     1   ar
    22    12     6   ar
    23    24    25    1
    24    15    16    1
    25     4    13    1
    26     4    14    1
@<TRIPOS>MOLECULE
*****
 25 26 0 0 0
SMALL
GASTEIGER

@<TRIPOS>ATOM
      1 C         139.2929  139.5716  165.1586 C.ar    1  UNL1        0.1349
      2 N         138.2795  138.5501  165.5821 N.ar    1  UNL1       -0.1992
      3 C         137.8993  138.4253  167.0277 C.ar    1  UNL1        0.2148
      4 N         136.8858  137.4038  167.4512 N.pl3   1  UNL1       -0.3274
      5 N         138.5327  139.3220  168.0499 N.ar    1  UNL1       -0.2138
      6 C         139.5462  140.3435  167.6264 C.ar    1  UNL1        0.0890
      7 C         140.1796  141.2402  168.6485 C.ar    1  UNL1        0.0194
      8 C         141.1930  142.2617  168.2250 C.ar    1  UNL1        0.0039
      9 C         141.5732  142.3865  166.7794 C.ar    1  UNL1        0.0298
     10 C         140.9398  141.4898  165.7572 C.ar    1  UNL1        0.1442
     11 F         141.3199  141.6146  164.3116 F       1  UNL1       -0.2040
     12 C         139.9263  140.4684  166.1807 C.ar    1  UNL1        0.0766
     13 H         136.4701  136.8153  166.7803 H       1  UNL1        0.1452
     14 H         136.6363  137.3218  168.4001 H       1  UNL1        0.1452
     15 N         139.6730  139.6964  163.7129 N.pl3   1  UNL1       -0.3195
     16 H         139.6720  140.5797  163.2781 H       1  UNL1        0.1481
     17 C         140.0548  138.4755  162.9297 C.3     1  UNL1        0.0729
     18 C         141.3002  137.7173  163.2822 C.3     1  UNL1        0.0196
     19 C         142.3983  138.3935  164.0484 C.3     1  UNL1        0.0017
     20 C         143.4126  138.9471  166.3753 C.3     1  UNL1        0.0000
     21 C         142.6638  138.0105  165.4741 C.3     1  UNL1        0.0001
     22 C         139.1912  138.0126  161.7938 C.3     1  UNL1        0.0512
     23 C         137.7300  138.3509  161.7765 C.3     1  UNL1        0.1389
     24 O         137.2874  139.7736  161.9498 O.3     1  UNL1       -0.3819
     25 H         137.5135  140.0759  162.8434 H       1  UNL1        0.2104
@<TRIPOS>BOND
     1    20    21    1
     2    21    19    1
     3    19    18    1
     4    17    18    1
     5    17    22    1
     6    22    23    1
     7    23    24    1
     8    17    15    1
     9    15     1    1
    10     1     2   ar
    11     2     3   ar
    12     3     4    1
    13     3     5   ar
    14     5     6   ar
    15     6     7   ar
    16     7     8   ar
    17     8     9   ar
    18     9    10   ar
    19    10    11    1
    20    10    12   ar
    21    12     1   ar
    22    12     6   ar
    23    24    25    1
    24    15    16    1
    25     4    13    1
    26     4    14    1
@<TRIPOS>MOLECULE
*****
 25 26 0 0 0
SMALL
GASTEIGER

@<TRIPOS>ATOM
      1 C         140.4238  142.2084  164.6238 C.ar    1  UNL1        0.1349
      2 N         139.0764  142.5637  164.0685 N.ar    1  UNL1       -0.1992
      3 C         138.8820  143.8636  163.3457 C.ar    1  UNL1        0.2148
      4 N         137.5346  144.2189  162.7905 N.pl3   1  UNL1       -0.3274
      5 N         140.0350  144.8083  163.1782 N.ar    1  UNL1       -0.2138
      6 C         141.3825  144.4531  163.7335 C.ar    1  UNL1        0.0890
      7 C         142.5355  145.3978  163.5660 C.ar    1  UNL1        0.0194
      8 C         143.8829  145.0425  164.1212 C.ar    1  UNL1        0.0039
      9 C         144.0772  143.7426  164.8440 C.ar    1  UNL1        0.0298
     10 C         142.9242  142.7979  165.0115 C.ar    1  UNL1        0.1442
     11 F         143.1186  141.4980  165.7343 F       1  UNL1       -0.2040
     12 C         141.5769  143.1531  164.4563 C.ar    1  UNL1        0.0766
     13 H         136.7778  143.5988  162.9004 H       1  UNL1        0.1452
     14 H         137.4070  145.0720  162.3161 H       1  UNL1        0.1452
     15 N         140.6181  140.9085  165.3465 N.pl3   1  UNL1       -0.3195
     16 H         141.0854  140.1639  164.9033 H       1  UNL1        0.1481
     17 C         140.1005  140.7430  166.7446 C.3     1  UNL1        0.0729
     18 C         140.4981  141.7191  167.8120 C.3     1  UNL1        0.0196
     19 C         141.6714  141.4239  168.6989 C.3     1  UNL1        0.0017
     20 C         143.8117  142.3089  169.8760 C.3     1  UNL1        0.0000
     21 C         142.8394  142.3643  168.7352 C.3     1  UNL1        0.0001
     22 C         139.1853  139.6015  167.0754 C.3     1  UNL1        0.0512
     23 C         138.1333  139.1753  166.0948 C.3     1  UNL1        0.1389
     24 O         137.6496  140.1357  165.0491 O.3     1  UNL1       -0.3819
     25 H         137.1846  140.8719  165.4765 H       1  UNL1        0.2104
@<TRIPOS>BOND
     1    20    21    1
     2    21    19    1
     3    19    18    1
     4    17    18    1
     5    17    22    1
     6    22    23    1
     7    23    24    1
     8    17    15    1
     9    15     1    1
    10     1     2   ar
    11     2     3   ar
    12     3     4    1
    13     3     5   ar
    14     5     6   ar
    15     6     7   ar
    16     7     8   ar
    17     8     9   ar
    18     9    10   ar
    19    10    11    1
    20    10    12   ar
    21    12     1   ar
    22    12     6   ar
    23    24    25    1
    24    15    16    1
    25     4    13    1
    26     4    14    1
@<TRIPOS>MOLECULE
*****
 25 26 0 0 0
SMALL
GASTEIGER

@<TRIPOS>ATOM
      1 C         139.0905  140.6257  164.7450 C.ar    1  UNL1        0.1349
      2 N         139.3985  141.6266  163.6711 N.ar    1  UNL1       -0.1992
      3 C         140.1017  142.9056  164.0172 C.ar    1  UNL1        0.2148
      4 N         140.4097  143.9065  162.9433 N.pl3   1  UNL1       -0.3274
      5 N         140.4969  143.1836  165.4372 N.ar    1  UNL1       -0.2138
      6 C         140.1889  142.1826  166.5112 C.ar    1  UNL1        0.0890
      7 C         140.5842  142.4606  167.9312 C.ar    1  UNL1        0.0194
      8 C         140.2762  141.4597  169.0051 C.ar    1  UNL1        0.0039
      9 C         139.5729  140.1808  168.6589 C.ar    1  UNL1        0.0298
     10 C         139.1777  139.9028  167.2389 C.ar    1  UNL1        0.1442
     11 F         138.4745  138.6238  166.8928 F       1  UNL1       -0.2040
     12 C         139.4857  140.9037  166.1651 C.ar    1  UNL1        0.0766
     13 H         140.1503  143.7240  162.0113 H       1  UNL1        0.1452
     14 H         140.8713  144.7459  163.1704 H       1  UNL1        0.1452
     15 N         138.3873  139.3468  164.3988 N.pl3   1  UNL1       -0.3195
     16 H         137.5863  139.0737  164.9019 H       1  UNL1        0.1481
     17 C         138.9045  138.4839  163.2863 C.3     1  UNL1        0.0729
     18 C         140.2568  137.8447  163.3994 C.3     1  UNL1        0.0196
     19 C         140.8568  137.5933  164.7511 C.3     1  UNL1        0.0017
     20 C         142.5458  138.8734  166.2539 C.3     1  UNL1        0.0000
     21 C         142.2600  138.0358  165.0428 C.3     1  UNL1        0.0001
     22 C         138.0694  138.2601  162.0604 C.3     1  UNL1        0.0512
     23 C         137.5840  139.4317  161.2594 C.3     1  UNL1        0.1389
     24 O         137.0322  140.6398  161.9565 O.3     1  UNL1       -0.3819
     25 H         136.2093  140.4025  162.4120 H       1  UNL1        0.2104
@<TRIPOS>BOND
     1    20    21    1
     2    21    19    1
     3    19    18    1
     4    17    18    1
     5    17    22    1
     6    22    23    1
     7    23    24    1
     8    17    15    1
     9    15     1    1
    10     1     2   ar
    11     2     3   ar
    12     3     4    1
    13     3     5   ar
    14     5     6   ar
    15     6     7   ar
    16     7     8   ar
    17     8     9   ar
    18     9    10   ar
    19    10    11    1
    20    10    12   ar
    21    12     1   ar
    22    12     6   ar
    23    24    25    1
    24    15    16    1
    25     4    13    1
    26     4    14    1
@<TRIPOS>MOLECULE
*****
 25 26 0 0 0
SMALL
GASTEIGER

@<TRIPOS>ATOM
      1 C         140.0150  143.4096  164.3311 C.ar    1  UNL1        0.1349
      2 N         139.3529  144.3409  163.3595 N.ar    1  UNL1       -0.1992
      3 C         140.1592  145.3990  162.6664 C.ar    1  UNL1        0.2148
      4 N         139.4970  146.3304  161.6947 N.pl3   1  UNL1       -0.3274
      5 N         141.6276  145.5257  162.9450 N.ar    1  UNL1       -0.2138
      6 C         142.2898  144.5944  163.9167 C.ar    1  UNL1        0.0890
      7 C         143.7582  144.7211  164.1953 C.ar    1  UNL1        0.0194
      8 C         144.4203  143.7897  165.1669 C.ar    1  UNL1        0.0039
      9 C         143.6140  142.7316  165.8600 C.ar    1  UNL1        0.0298
     10 C         142.1456  142.6049  165.5814 C.ar    1  UNL1        0.1442
     11 F         141.3393  141.5468  166.2745 F       1  UNL1       -0.2040
     12 C         141.4835  143.5363  164.6097 C.ar    1  UNL1        0.0766
     13 H         138.5332  146.2472  161.5119 H       1  UNL1        0.1452
     14 H         140.0262  147.0249  161.2398 H       1  UNL1        0.1452
     15 N         139.2087  142.3515  165.0242 N.pl3   1  UNL1       -0.3195
     16 H         138.9845  142.4492  165.9778 H       1  UNL1        0.1481
     17 C         138.7440  141.1446  164.2643 C.3     1  UNL1        0.0729
     18 C         139.5014  139.8542  164.3700 C.3     1  UNL1        0.0196
     19 C         138.7596  138.5517  164.4273 C.3     1  UNL1        0.0017
     20 C         137.7821  138.6007  166.8339 C.3     1  UNL1        0.0000
     21 C         138.5242  137.8801  165.7477 C.3     1  UNL1        0.0001
     22 C         137.5218  141.2281  163.3986 C.3     1  UNL1        0.0512
     23 C         137.6528  141.5912  161.9491 C.3     1  UNL1        0.1389
     24 O         137.5740  143.0281  161.5258 O.3     1  UNL1       -0.3819
     25 H         136.6818  143.3674  161.6982 H       1  UNL1        0.2104
@<TRIPOS>BOND
     1    20    21    1
     2    21    19    1
     3    19    18    1
     4    17    18    1
     5    17    22    1
     6    22    23    1
     7    23    24    1
     8    17    15    1
     9    15     1    1
    10     1     2   ar
    11     2     3   ar
    12     3     4    1
    13     3     5   ar
    14     5     6   ar
    15     6     7   ar
    16     7     8   ar
    17     8     9   ar
    18     9    10   ar
    19    10    11    1
    20    10    12   ar
    21    12     1   ar
    22    12     6   ar
    23    24    25    1
    24    15    16    1
    25     4    13    1
    26     4    14    1
@<TRIPOS>MOLECULE
*****
 25 26 0 0 0
SMALL
GASTEIGER

@<TRIPOS>ATOM
      1 C         138.8591  140.2360  164.3662 C.ar    1  UNL1        0.1349
      2 N         138.2492  139.5155  163.2006 N.ar    1  UNL1       -0.1992
      3 C         137.5862  140.2924  162.1021 C.ar    1  UNL1        0.2148
      4 N         136.9762  139.5718  160.9364 N.pl3   1  UNL1       -0.3274
      5 N         137.5330  141.7900  162.1692 N.ar    1  UNL1       -0.2138
      6 C         138.1429  142.5106  163.3349 C.ar    1  UNL1        0.0890
      7 C         138.0898  144.0081  163.4021 C.ar    1  UNL1        0.0194
      8 C         138.6997  144.7287  164.5677 C.ar    1  UNL1        0.0039
      9 C         139.3627  143.9517  165.6662 C.ar    1  UNL1        0.0298
     10 C         139.4159  142.4542  165.5991 C.ar    1  UNL1        0.1442
     11 F         140.0789  141.6772  166.6976 F       1  UNL1       -0.2040
     12 C         138.8060  141.7336  164.4334 C.ar    1  UNL1        0.0766
     13 H         137.0111  138.5889  160.8923 H       1  UNL1        0.1452
     14 H         136.5411  140.0817  160.2154 H       1  UNL1        0.1452
     15 N         139.5221  139.4591  165.4648 N.pl3   1  UNL1       -0.3195
     16 H         139.0927  139.3912  166.3481 H       1  UNL1        0.1481
     17 C         140.8394  138.7856  165.2175 C.3     1  UNL1        0.0729
     18 C         142.1183  139.4919  165.5573 C.3     1  UNL1        0.0196
     19 C         142.6457  140.5654  164.6520 C.3     1  UNL1        0.0017
     20 C         143.2680  142.3401  166.4445 C.3     1  UNL1        0.0000
     21 C         143.5972  141.5952  165.1849 C.3     1  UNL1        0.0001
     22 C         140.8777  137.4058  164.6303 C.3     1  UNL1        0.0512
     23 C         141.0448  137.2247  163.1507 C.3     1  UNL1        0.1389
     24 O         139.8488  137.2884  162.2476 O.3     1  UNL1       -0.3819
     25 H         139.2604  136.5410  162.4372 H       1  UNL1        0.2104
@<TRIPOS>BOND
     1    20    21    1
     2    21    19    1
     3    19    18    1
     4    17    18    1
     5    17    22    1
     6    22    23    1
     7    23    24    1
     8    17    15    1
     9    15     1    1
    10     1     2   ar
    11     2     3   ar
    12     3     4    1
    13     3     5   ar
    14     5     6   ar
    15     6     7   ar
    16     7     8   ar
    17     8     9   ar
    18     9    10   ar
    19    10    11    1
    20    10    12   ar
    21    12     1   ar
    22    12     6   ar
    23    24    25    1
    24    15    16    1
    25     4    13    1
    26     4    14    1
