@<TRIPOS>MOLECULE
*****
 28 31 0 0 0
SMALL
GASTEIGER

@<TRIPOS>ATOM
      1 C         138.4464  139.4608  165.9775 C.3     1  UNL1        0.0391
      2 C         138.9334  140.5947  165.1247 C.3     1  UNL1        0.1611
      3 C         138.0498  139.8887  164.1395 C.3     1  UNL1        0.0391
      4 O         139.1135  141.4833  163.9298 O.3     1  UNL1       -0.3529
      5 C         140.0081  142.6843  164.0163 C.3     1  UNL1        0.1144
      6 C         140.9027  143.8851  164.1028 C.3     1  UNL1        0.0463
      7 C         141.0828  144.7738  162.9079 C.3     1  UNL1        0.0746
      8 N         140.3683  144.4615  161.6265 N.3     1  UNL1       -0.2722
      9 C         139.4737  143.2607  161.5400 C.3     1  UNL1        0.0746
     10 C         139.2936  142.3720  162.7349 C.3     1  UNL1        0.0463
     11 C         140.7226  142.9965  165.2977 C.3     1  UNL1        0.1254
     12 N         140.5425  142.1078  166.4926 N.am    1  UNL1       -0.2544
     13 C         139.6479  140.9069  166.4061 C.2     1  UNL1        0.2538
     14 O         139.4677  140.0182  167.6010 O.2     1  UNL1       -0.2720
     15 C         141.2570  142.4200  167.7740 C.ar    1  UNL1        0.0540
     16 C         140.5466  143.1615  168.8674 C.ar    1  UNL1        0.0149
     17 C         141.2612  143.4737  170.1488 C.ar    1  UNL1        0.0013
     18 C         142.6860  143.0444  170.3368 C.ar    1  UNL1        0.0001
     19 C         143.3965  142.3029  169.2434 C.ar    1  UNL1        0.0013
     20 C         142.6820  141.9906  167.9620 C.ar    1  UNL1        0.0149
     21 C         140.5485  145.3503  160.4315 C.3     1  UNL1        0.0768
     22 C         141.5303  144.9773  159.3607 C.3     1  UNL1        0.0437
     23 C         141.2706  145.3681  157.9359 C.ar    1  UNL1       -0.0208
     24 C         142.1925  144.8990  156.8496 C.ar    1  UNL1       -0.0042
     25 C         141.9328  145.2898  155.4249 C.ar    1  UNL1       -0.0003
     26 C         140.7512  146.1496  155.0865 C.ar    1  UNL1       -0.0000
     27 C         139.8293  146.6186  156.1728 C.ar    1  UNL1       -0.0003
     28 C         140.0890  146.2279  157.5975 C.ar    1  UNL1       -0.0042
@<TRIPOS>BOND
     1     1     2    1
     2     2     3    1
     3     2     4    1
     4     4     5    1
     5     5     6    1
     6     6     7    1
     7     7     8    1
     8     8    21    1
     9    21    22    1
    10    22    23    1
    11    23    24   ar
    12    24    25   ar
    13    25    26   ar
    14    26    27   ar
    15    27    28   ar
    16     8     9    1
    17     9    10    1
    18     5    11    1
    19    11    12    1
    20    12    15    1
    21    15    16   ar
    22    16    17   ar
    23    17    18   ar
    24    18    19   ar
    25    19    20   ar
    26    12    13   am
    27    13    14    2
    28    13     2    1
    29    10     5    1
    30    20    15   ar
    31    28    23   ar
@<TRIPOS>MOLECULE
*****
 28 31 0 0 0
SMALL
GASTEIGER

@<TRIPOS>ATOM
      1 C         138.4794  139.4584  166.0736 C.3     1  UNL1        0.0391
      2 C         138.9045  140.6271  165.2349 C.3     1  UNL1        0.1611
      3 C         138.0069  139.9213  164.2622 C.3     1  UNL1        0.0391
      4 O         139.0178  141.5507  164.0584 O.3     1  UNL1       -0.3529
      5 C         139.8811  142.7743  164.1459 C.3     1  UNL1        0.1144
      6 C         140.7444  143.9978  164.2334 C.3     1  UNL1        0.0463
      7 C         140.8577  144.9214  163.0569 C.3     1  UNL1        0.0746
      8 N         140.1077  144.6215  161.7930 N.3     1  UNL1       -0.2722
      9 C         139.2445  143.3979  161.7055 C.3     1  UNL1        0.0746
     10 C         139.1311  142.4744  162.8819 C.3     1  UNL1        0.0463
     11 C         140.6310  143.0743  165.4099 C.3     1  UNL1        0.1254
     12 N         140.5177  142.1506  166.5864 N.am    1  UNL1       -0.2544
     13 C         139.6544  140.9271  166.4989 C.2     1  UNL1        0.2538
     14 O         139.5410  140.0034  167.6754 O.2     1  UNL1       -0.2720
     15 C         141.2676  142.4505  167.8503 C.ar    1  UNL1        0.0540
     16 C         142.6978  142.0215  167.9937 C.ar    1  UNL1        0.0149
     17 C         143.4477  142.3215  169.2576 C.ar    1  UNL1        0.0013
     18 C         142.7675  143.0504  170.3783 C.ar    1  UNL1        0.0001
     19 C         141.3373  143.4795  170.2350 C.ar    1  UNL1        0.0013
     20 C         140.5874  143.1796  168.9710 C.ar    1  UNL1        0.0149
     21 C         140.2211  145.5451  160.6165 C.3     1  UNL1        0.0768
     22 C         141.2446  145.2817  159.5521 C.3     1  UNL1        0.0437
     23 C         141.6954  143.8779  159.2759 C.ar    1  UNL1       -0.0208
     24 C         142.8595  143.3026  160.0268 C.ar    1  UNL1       -0.0042
     25 C         143.3102  141.8988  159.7507 C.ar    1  UNL1       -0.0003
     26 C         142.5968  141.0704  158.7236 C.ar    1  UNL1       -0.0000
     27 C         141.4327  141.6457  157.9727 C.ar    1  UNL1       -0.0003
     28 C         140.9820  143.0495  158.2489 C.ar    1  UNL1       -0.0042
@<TRIPOS>BOND
     1     1     2    1
     2     2     3    1
     3     2     4    1
     4     4     5    1
     5     5     6    1
     6     6     7    1
     7     7     8    1
     8     8    21    1
     9    21    22    1
    10    22    23    1
    11    23    24   ar
    12    24    25   ar
    13    25    26   ar
    14    26    27   ar
    15    27    28   ar
    16     8     9    1
    17     9    10    1
    18     5    11    1
    19    11    12    1
    20    12    15    1
    21    15    16   ar
    22    16    17   ar
    23    17    18   ar
    24    18    19   ar
    25    19    20   ar
    26    12    13   am
    27    13    14    2
    28    13     2    1
    29    10     5    1
    30    20    15   ar
    31    28    23   ar
@<TRIPOS>MOLECULE
*****
 28 31 0 0 0
SMALL
GASTEIGER

@<TRIPOS>ATOM
      1 C         138.1158  138.2568  166.1596 C.3     1  UNL1        0.0391
      2 C         139.3475  138.8665  165.5588 C.3     1  UNL1        0.1611
      3 C         138.8716  138.0437  164.3984 C.3     1  UNL1        0.0391
      4 O         140.4140  139.1903  164.5549 O.3     1  UNL1       -0.3529
      5 C         141.5287  140.1253  164.9201 C.3     1  UNL1        0.1144
      6 C         142.6433  141.0603  165.2853 C.3     1  UNL1        0.0463
      7 C         143.7098  141.3842  164.2815 C.3     1  UNL1        0.0746
      8 N         143.6617  140.7731  162.9125 N.3     1  UNL1       -0.2722
      9 C         142.5471  139.8381  162.5473 C.3     1  UNL1        0.0746
     10 C         141.4806  139.5142  163.5511 C.3     1  UNL1        0.0463
     11 C         141.5768  140.7365  166.2892 C.3     1  UNL1        0.1254
     12 N         140.5103  140.4125  167.2930 N.am    1  UNL1       -0.2544
     13 C         139.3957  139.4776  166.9278 C.2     1  UNL1        0.2538
     14 O         138.3291  139.1537  167.9316 O.2     1  UNL1       -0.2720
     15 C         140.5584  141.0236  168.6620 C.ar    1  UNL1        0.0540
     16 C         140.2903  142.4888  168.8392 C.ar    1  UNL1        0.0149
     17 C         140.3384  143.0999  170.2082 C.ar    1  UNL1        0.0013
     18 C         140.6547  142.2459  171.4001 C.ar    1  UNL1        0.0001
     19 C         140.9228  140.7806  171.2229 C.ar    1  UNL1        0.0013
     20 C         140.8747  140.1695  169.8539 C.ar    1  UNL1        0.0149
     21 C         144.7282  141.0970  161.9087 C.3     1  UNL1        0.0768
     22 C         144.7013  142.4093  161.1827 C.3     1  UNL1        0.0437
     23 C         143.4505  143.2373  161.1763 C.ar    1  UNL1       -0.0208
     24 C         142.4923  143.1397  160.0264 C.ar    1  UNL1       -0.0042
     25 C         141.2416  143.9676  160.0200 C.ar    1  UNL1       -0.0003
     26 C         140.9490  144.8933  161.1635 C.ar    1  UNL1       -0.0000
     27 C         141.9072  144.9910  162.3134 C.ar    1  UNL1       -0.0003
     28 C         143.1579  144.1630  162.3198 C.ar    1  UNL1       -0.0042
@<TRIPOS>BOND
     1     1     2    1
     2     2     3    1
     3     2     4    1
     4     4     5    1
     5     5     6    1
     6     6     7    1
     7     7     8    1
     8     8    21    1
     9    21    22    1
    10    22    23    1
    11    23    24   ar
    12    24    25   ar
    13    25    26   ar
    14    26    27   ar
    15    27    28   ar
    16     8     9    1
    17     9    10    1
    18     5    11    1
    19    11    12    1
    20    12    15    1
    21    15    16   ar
    22    16    17   ar
    23    17    18   ar
    24    18    19   ar
    25    19    20   ar
    26    12    13   am
    27    13    14    2
    28    13     2    1
    29    10     5    1
    30    20    15   ar
    31    28    23   ar
@<TRIPOS>MOLECULE
*****
 28 31 0 0 0
SMALL
GASTEIGER

@<TRIPOS>ATOM
      1 C         144.4711  139.3547  164.7024 C.3     1  UNL1        0.0391
      2 C         143.6642  140.3587  163.9338 C.3     1  UNL1        0.1611
      3 C         145.0448  140.7351  163.4841 C.3     1  UNL1        0.0391
      4 O         143.3367  141.4934  163.0090 O.3     1  UNL1       -0.3529
      5 C         141.9088  141.9031  162.8008 C.3     1  UNL1        0.1144
      6 C         140.4809  142.3128  162.5927 C.3     1  UNL1        0.0463
      7 C         140.1535  143.4475  161.6679 C.3     1  UNL1        0.0746
      8 N         141.2538  144.1725  160.9513 N.3     1  UNL1       -0.2722
      9 C         142.6817  143.7628  161.1594 C.3     1  UNL1        0.0746
     10 C         143.0092  142.6281  162.0842 C.3     1  UNL1        0.0463
     11 C         140.8084  141.1782  163.5175 C.3     1  UNL1        0.1254
     12 N         141.1360  140.0434  164.4423 N.am    1  UNL1       -0.2544
     13 C         142.5638  139.6338  164.6504 C.2     1  UNL1        0.2538
     14 O         142.8914  138.4990  165.5752 O.2     1  UNL1       -0.2720
     15 C         140.0356  139.3184  165.1589 C.ar    1  UNL1        0.0540
     16 C         139.3953  139.9335  166.3679 C.ar    1  UNL1        0.0149
     17 C         138.2949  139.2085  167.0845 C.ar    1  UNL1        0.0013
     18 C         137.8348  137.8685  166.5922 C.ar    1  UNL1        0.0001
     19 C         138.4751  137.2533  165.3832 C.ar    1  UNL1        0.0013
     20 C         139.5755  137.9783  164.6665 C.ar    1  UNL1        0.0149
     21 C         140.9263  145.3072  160.0265 C.3     1  UNL1        0.0768
     22 C         141.3661  145.2575  158.5933 C.3     1  UNL1        0.0437
     23 C         140.3473  145.3139  157.4937 C.ar    1  UNL1       -0.0208
     24 C         139.6981  144.0521  157.0074 C.ar    1  UNL1       -0.0042
     25 C         138.6793  144.1085  155.9079 C.ar    1  UNL1       -0.0003
     26 C         138.3098  145.4266  155.2948 C.ar    1  UNL1       -0.0000
     27 C         138.9589  146.6884  155.7811 C.ar    1  UNL1       -0.0003
     28 C         139.9777  146.6320  156.8806 C.ar    1  UNL1       -0.0042
@<TRIPOS>BOND
     1     1     2    1
     2     2     3    1
     3     2     4    1
     4     4     5    1
     5     5     6    1
     6     6     7    1
     7     7     8    1
     8     8    21    1
     9    21    22    1
    10    22    23    1
    11    23    24   ar
    12    24    25   ar
    13    25    26   ar
    14    26    27   ar
    15    27    28   ar
    16     8     9    1
    17     9    10    1
    18     5    11    1
    19    11    12    1
    20    12    15    1
    21    15    16   ar
    22    16    17   ar
    23    17    18   ar
    24    18    19   ar
    25    19    20   ar
    26    12    13   am
    27    13    14    2
    28    13     2    1
    29    10     5    1
    30    20    15   ar
    31    28    23   ar
@<TRIPOS>MOLECULE
*****
 28 31 0 0 0
SMALL
GASTEIGER

@<TRIPOS>ATOM
      1 C         144.6588  143.4259  165.4035 C.3     1  UNL1        0.0391
      2 C         144.2328  142.2550  164.5684 C.3     1  UNL1        0.1611
      3 C         145.1046  142.9746  163.5825 C.3     1  UNL1        0.0391
      4 O         144.1096  141.3340  163.3909 O.3     1  UNL1       -0.3529
      5 C         143.2624  140.1000  163.4893 C.3     1  UNL1        0.1144
      6 C         142.4153  138.8661  163.5877 C.3     1  UNL1        0.0463
      7 C         142.2921  137.9451  162.4102 C.3     1  UNL1        0.0746
      8 N         143.0160  138.2580  161.1343 N.3     1  UNL1       -0.2722
      9 C         143.8631  139.4920  161.0359 C.3     1  UNL1        0.0746
     10 C         143.9863  140.4130  162.2134 C.3     1  UNL1        0.0463
     11 C         142.5385  139.7871  164.7652 C.3     1  UNL1        0.1254
     12 N         142.6618  140.7081  165.9428 N.am    1  UNL1       -0.2544
     13 C         143.5089  141.9421  165.8443 C.2     1  UNL1        0.2538
     14 O         143.6321  142.8631  167.0219 O.2     1  UNL1       -0.2720
     15 C         141.9379  140.3952  167.2187 C.ar    1  UNL1        0.0540
     16 C         140.4732  140.6941  167.3428 C.ar    1  UNL1        0.0149
     17 C         139.7493  140.3812  168.6187 C.ar    1  UNL1        0.0013
     18 C         140.4900  139.7693  169.7706 C.ar    1  UNL1        0.0001
     19 C         141.9548  139.4704  169.6466 C.ar    1  UNL1        0.0013
     20 C         142.6787  139.7833  168.3707 C.ar    1  UNL1        0.0149
     21 C         142.8927  137.3370  159.9568 C.3     1  UNL1        0.0768
     22 C         142.7096  137.9013  158.5791 C.3     1  UNL1        0.0437
     23 C         142.2359  137.0175  157.4634 C.ar    1  UNL1       -0.0208
     24 C         140.9860  137.3649  156.7105 C.ar    1  UNL1       -0.0042
     25 C         140.5124  136.4811  155.5949 C.ar    1  UNL1       -0.0003
     26 C         141.2888  135.2499  155.2322 C.ar    1  UNL1       -0.0000
     27 C         142.5387  134.9026  155.9852 C.ar    1  UNL1       -0.0003
     28 C         143.0123  135.7863  157.1008 C.ar    1  UNL1       -0.0042
@<TRIPOS>BOND
     1     1     2    1
     2     2     3    1
     3     2     4    1
     4     4     5    1
     5     5     6    1
     6     6     7    1
     7     7     8    1
     8     8    21    1
     9    21    22    1
    10    22    23    1
    11    23    24   ar
    12    24    25   ar
    13    25    26   ar
    14    26    27   ar
    15    27    28   ar
    16     8     9    1
    17     9    10    1
    18     5    11    1
    19    11    12    1
    20    12    15    1
    21    15    16   ar
    22    16    17   ar
    23    17    18   ar
    24    18    19   ar
    25    19    20   ar
    26    12    13   am
    27    13    14    2
    28    13     2    1
    29    10     5    1
    30    20    15   ar
    31    28    23   ar
@<TRIPOS>MOLECULE
*****
 28 31 0 0 0
SMALL
GASTEIGER

@<TRIPOS>ATOM
      1 C         141.4900  144.7326  157.6697 C.3     1  UNL1        0.0391
      2 C         142.0961  144.2312  158.9469 C.3     1  UNL1        0.1611
      3 C         140.9096  144.9683  159.4935 C.3     1  UNL1        0.0391
      4 O         142.2902  143.9858  160.4138 O.3     1  UNL1       -0.3529
      5 C         143.4603  143.1774  160.8907 C.3     1  UNL1        0.1144
      6 C         144.6303  142.3689  161.3675 C.3     1  UNL1        0.0463
      7 C         144.8244  142.1236  162.8345 C.3     1  UNL1        0.0746
      8 N         143.8484  142.6866  163.8247 N.3     1  UNL1       -0.2722
      9 C         142.6783  143.4950  163.3479 C.3     1  UNL1        0.0746
     10 C         142.4843  143.7404  161.8809 C.3     1  UNL1        0.0463
     11 C         144.4363  142.6143  159.9006 C.3     1  UNL1        0.1254
     12 N         144.2421  142.8598  158.4335 N.am    1  UNL1       -0.2544
     13 C         143.0721  143.6682  157.9567 C.2     1  UNL1        0.2538
     14 O         142.8780  143.9136  156.4896 O.2     1  UNL1       -0.2720
     15 C         145.2181  142.2967  157.4433 C.ar    1  UNL1        0.0540
     16 C         144.8139  141.1557  156.5576 C.ar    1  UNL1        0.0149
     17 C         145.7899  140.5927  155.5674 C.ar    1  UNL1        0.0013
     18 C         147.1701  141.1707  155.4630 C.ar    1  UNL1        0.0001
     19 C         147.5744  142.3118  156.3488 C.ar    1  UNL1        0.0013
     20 C         146.5984  142.8748  157.3390 C.ar    1  UNL1        0.0149
     21 C         144.0425  142.4412  165.2917 C.3     1  UNL1        0.0768
     22 C         143.0397  141.6279  166.0552 C.3     1  UNL1        0.0437
     23 C         142.4750  142.1499  167.3431 C.ar    1  UNL1       -0.0208
     24 C         141.0385  142.5760  167.4141 C.ar    1  UNL1       -0.0042
     25 C         140.4739  143.0980  168.7019 C.ar    1  UNL1       -0.0003
     26 C         141.3456  143.1939  169.9188 C.ar    1  UNL1       -0.0000
     27 C         142.7820  142.7678  169.8479 C.ar    1  UNL1       -0.0003
     28 C         143.3467  142.2458  168.5600 C.ar    1  UNL1       -0.0042
@<TRIPOS>BOND
     1     1     2    1
     2     2     3    1
     3     2     4    1
     4     4     5    1
     5     5     6    1
     6     6     7    1
     7     7     8    1
     8     8    21    1
     9    21    22    1
    10    22    23    1
    11    23    24   ar
    12    24    25   ar
    13    25    26   ar
    14    26    27   ar
    15    27    28   ar
    16     8     9    1
    17     9    10    1
    18     5    11    1
    19    11    12    1
    20    12    15    1
    21    15    16   ar
    22    16    17   ar
    23    17    18   ar
    24    18    19   ar
    25    19    20   ar
    26    12    13   am
    27    13    14    2
    28    13     2    1
    29    10     5    1
    30    20    15   ar
    31    28    23   ar
@<TRIPOS>MOLECULE
*****
 28 31 0 0 0
SMALL
GASTEIGER

@<TRIPOS>ATOM
      1 C         138.1860  138.7277  166.9734 C.3     1  UNL1        0.0391
      2 C         139.3281  138.8662  166.0109 C.3     1  UNL1        0.1611
      3 C         138.4536  137.9198  165.2430 C.3     1  UNL1        0.0391
      4 O         140.1664  138.6760  164.7817 O.3     1  UNL1       -0.3529
      5 C         141.4826  139.3841  164.6546 C.3     1  UNL1        0.1144
      6 C         142.7988  140.0922  164.5275 C.3     1  UNL1        0.0463
      7 C         143.6372  139.9021  163.2983 C.3     1  UNL1        0.0746
      8 N         143.1593  139.0038  162.1961 N.3     1  UNL1       -0.2722
      9 C         141.8431  138.2957  162.3232 C.3     1  UNL1        0.0746
     10 C         141.0048  138.4859  163.5524 C.3     1  UNL1        0.0463
     11 C         141.9605  140.2824  165.7567 C.3     1  UNL1        0.1254
     12 N         141.1221  140.4725  166.9860 N.am    1  UNL1       -0.2544
     13 C         139.8059  139.7644  167.1130 C.2     1  UNL1        0.2538
     14 O         138.9675  139.9546  168.3423 O.2     1  UNL1       -0.2720
     15 C         141.6000  141.3708  168.0882 C.ar    1  UNL1        0.0540
     16 C         142.9364  141.1304  168.7253 C.ar    1  UNL1        0.0149
     17 C         143.4143  142.0287  169.8275 C.ar    1  UNL1        0.0013
     18 C         142.5557  143.1673  170.2925 C.ar    1  UNL1        0.0001
     19 C         141.2192  143.4078  169.6553 C.ar    1  UNL1        0.0013
     20 C         140.7413  142.5095  168.5531 C.ar    1  UNL1        0.0149
     21 C         143.9977  138.8137  160.9669 C.3     1  UNL1        0.0768
     22 C         143.6259  139.5084  159.6906 C.3     1  UNL1        0.0437
     23 C         142.4975  138.9843  158.8525 C.ar    1  UNL1       -0.0208
     24 C         142.7229  137.8187  157.9358 C.ar    1  UNL1       -0.0042
     25 C         141.5946  137.2946  157.0978 C.ar    1  UNL1       -0.0003
     26 C         140.2410  137.9362  157.1765 C.ar    1  UNL1       -0.0000
     27 C         140.0157  139.1018  158.0932 C.ar    1  UNL1       -0.0003
     28 C         141.1440  139.6259  158.9312 C.ar    1  UNL1       -0.0042
@<TRIPOS>BOND
     1     1     2    1
     2     2     3    1
     3     2     4    1
     4     4     5    1
     5     5     6    1
     6     6     7    1
     7     7     8    1
     8     8    21    1
     9    21    22    1
    10    22    23    1
    11    23    24   ar
    12    24    25   ar
    13    25    26   ar
    14    26    27   ar
    15    27    28   ar
    16     8     9    1
    17     9    10    1
    18     5    11    1
    19    11    12    1
    20    12    15    1
    21    15    16   ar
    22    16    17   ar
    23    17    18   ar
    24    18    19   ar
    25    19    20   ar
    26    12    13   am
    27    13    14    2
    28    13     2    1
    29    10     5    1
    30    20    15   ar
    31    28    23   ar
@<TRIPOS>MOLECULE
*****
 28 31 0 0 0
SMALL
GASTEIGER

@<TRIPOS>ATOM
      1 C         143.7231  138.7367  165.7969 C.3     1  UNL1        0.0391
      2 C         142.9947  139.7362  164.9481 C.3     1  UNL1        0.1611
      3 C         143.8557  139.0872  163.9053 C.3     1  UNL1        0.0391
      4 O         142.5653  140.5103  163.7372 O.3     1  UNL1       -0.3529
      5 C         141.5279  141.5863  163.8638 C.3     1  UNL1        0.1144
      6 C         140.4905  142.6622  163.9904 C.3     1  UNL1        0.0463
      7 C         140.0611  143.4363  162.7795 C.3     1  UNL1        0.0746
      8 N         140.6692  143.1344  161.4419 N.3     1  UNL1       -0.2722
      9 C         141.7066  142.0584  161.3153 C.3     1  UNL1        0.0746
     10 C         142.1359  141.2844  162.5262 C.3     1  UNL1        0.0463
     11 C         140.9199  141.8882  165.2014 C.3     1  UNL1        0.1254
     12 N         141.3493  141.1141  166.4124 N.am    1  UNL1       -0.2544
     13 C         142.3867  140.0381  166.2857 C.2     1  UNL1        0.2538
     14 O         142.8161  139.2640  167.4967 O.2     1  UNL1       -0.2720
     15 C         140.7413  141.4160  167.7500 C.ar    1  UNL1        0.0540
     16 C         141.0132  142.7313  168.4178 C.ar    1  UNL1        0.0149
     17 C         140.4052  143.0332  169.7554 C.ar    1  UNL1        0.0013
     18 C         139.5252  142.0198  170.4252 C.ar    1  UNL1        0.0001
     19 C         139.2533  140.7044  169.7574 C.ar    1  UNL1        0.0013
     20 C         139.8613  140.4025  168.4198 C.ar    1  UNL1        0.0149
     21 C         140.2397  143.9085  160.2309 C.3     1  UNL1        0.0768
     22 C         141.1048  145.0137  159.7016 C.3     1  UNL1        0.0437
     23 C         141.1806  145.2650  158.2247 C.ar    1  UNL1       -0.0208
     24 C         142.2502  144.6055  157.4056 C.ar    1  UNL1       -0.0042
     25 C         142.3259  144.8568  155.9288 C.ar    1  UNL1       -0.0003
     26 C         141.3321  145.7676  155.2710 C.ar    1  UNL1       -0.0000
     27 C         140.2625  146.4271  156.0901 C.ar    1  UNL1       -0.0003
     28 C         140.1867  146.1758  157.5670 C.ar    1  UNL1       -0.0042
@<TRIPOS>BOND
     1     1     2    1
     2     2     3    1
     3     2     4    1
     4     4     5    1
     5     5     6    1
     6     6     7    1
     7     7     8    1
     8     8    21    1
     9    21    22    1
    10    22    23    1
    11    23    24   ar
    12    24    25   ar
    13    25    26   ar
    14    26    27   ar
    15    27    28   ar
    16     8     9    1
    17     9    10    1
    18     5    11    1
    19    11    12    1
    20    12    15    1
    21    15    16   ar
    22    16    17   ar
    23    17    18   ar
    24    18    19   ar
    25    19    20   ar
    26    12    13   am
    27    13    14    2
    28    13     2    1
    29    10     5    1
    30    20    15   ar
    31    28    23   ar
@<TRIPOS>MOLECULE
*****
 28 31 0 0 0
SMALL
GASTEIGER

@<TRIPOS>ATOM
      1 C         143.9939  140.9794  156.1829 C.3     1  UNL1        0.0391
      2 C         143.8542  140.4848  157.5921 C.3     1  UNL1        0.1611
      3 C         144.3875  141.8626  157.8513 C.3     1  UNL1        0.0391
      4 O         143.8997  140.4688  159.0913 O.3     1  UNL1       -0.3529
      5 C         143.4604  139.2466  159.8420 C.3     1  UNL1        0.1144
      6 C         143.0211  138.0245  160.5926 C.3     1  UNL1        0.0463
      7 C         143.0667  138.0085  162.0918 C.3     1  UNL1        0.0746
      8 N         143.5515  139.2146  162.8403 N.3     1  UNL1       -0.2722
      9 C         143.9908  140.4367  162.0897 C.3     1  UNL1        0.0746
     10 C         143.9453  140.4527  160.5905 C.3     1  UNL1        0.0463
     11 C         142.9756  138.0406  159.0934 C.3     1  UNL1        0.1254
     12 N         142.9301  138.0567  157.5941 N.am    1  UNL1       -0.2544
     13 C         143.3694  139.2788  156.8435 C.2     1  UNL1        0.2538
     14 O         143.3238  139.2948  155.3442 O.2     1  UNL1       -0.2720
     15 C         142.4453  136.8506  156.8455 C.ar    1  UNL1        0.0540
     16 C         143.2550  135.5880  156.8526 C.ar    1  UNL1        0.0149
     17 C         142.7701  134.3819  156.1040 C.ar    1  UNL1        0.0013
     18 C         141.4756  134.4385  155.3484 C.ar    1  UNL1        0.0001
     19 C         140.6658  135.7012  155.3413 C.ar    1  UNL1        0.0013
     20 C         141.1507  136.9072  156.0899 C.ar    1  UNL1        0.0149
     21 C         143.5970  139.1985  164.3396 C.3     1  UNL1        0.0768
     22 C         142.7849  138.1954  165.1039 C.3     1  UNL1        0.0437
     23 C         141.3344  138.4591  165.3806 C.ar    1  UNL1       -0.0208
     24 C         140.9384  139.5492  166.3318 C.ar    1  UNL1       -0.0042
     25 C         139.4880  139.8129  166.6085 C.ar    1  UNL1       -0.0003
     26 C         138.4334  138.9864  165.9340 C.ar    1  UNL1       -0.0000
     27 C         138.8294  137.8963  164.9828 C.ar    1  UNL1       -0.0003
     28 C         140.2798  137.6326  164.7061 C.ar    1  UNL1       -0.0042
@<TRIPOS>BOND
     1     1     2    1
     2     2     3    1
     3     2     4    1
     4     4     5    1
     5     5     6    1
     6     6     7    1
     7     7     8    1
     8     8    21    1
     9    21    22    1
    10    22    23    1
    11    23    24   ar
    12    24    25   ar
    13    25    26   ar
    14    26    27   ar
    15    27    28   ar
    16     8     9    1
    17     9    10    1
    18     5    11    1
    19    11    12    1
    20    12    15    1
    21    15    16   ar
    22    16    17   ar
    23    17    18   ar
    24    18    19   ar
    25    19    20   ar
    26    12    13   am
    27    13    14    2
    28    13     2    1
    29    10     5    1
    30    20    15   ar
    31    28    23   ar
