@<TRIPOS>MOLECULE
*****
 24 27 0 0 0
SMALL
GASTEIGER

@<TRIPOS>ATOM
      1 C         139.8051  140.6487  168.2686 C.ar    1  UNL1        0.0697
      2 C         138.7704  139.5692  168.1506 C.ar    1  UNL1        0.0155
      3 C         138.2954  139.1305  166.7972 C.ar    1  UNL1        0.0027
      4 C         138.8551  139.7713  165.5618 C.ar    1  UNL1        0.0174
      5 C         138.3800  139.3325  164.2083 C.ar    1  UNL1       -0.0027
      6 C         138.9396  139.9732  162.9729 C.ar    1  UNL1       -0.0207
      7 C         139.9744  141.0528  163.0910 C.ar    1  UNL1       -0.0027
      8 C         140.4494  141.4916  164.4445 C.ar    1  UNL1        0.0188
      9 C         139.8897  140.8508  165.6798 C.ar    1  UNL1        0.0809
     10 N         140.3648  141.2895  167.0333 N.ar    1  UNL1       -0.2489
     11 C         142.1883  139.2562  170.0096 C.3     1  UNL1        0.0499
     12 C         141.3756  140.4475  170.4223 C.2     1  UNL1        0.0696
     13 N         141.5156  141.2078  171.7077 N.2     1  UNL1       -0.1562
     14 N         140.5067  142.3179  171.7020 N.2     1  UNL1       -0.1510
     15 C         139.7432  142.2435  170.4130 C.2     1  UNL1        0.1070
     16 C         140.2802  141.0875  169.6221 C.3     1  UNL1        0.1209
     17 C         138.4646  139.5345  161.6195 C.3     1  UNL1        0.0437
     18 C         139.1113  138.3634  160.9410 C.3     1  UNL1        0.0768
     19 N         140.6047  138.2993  160.8168 N.3     1  UNL1       -0.2737
     20 C         141.4110  138.7459  159.6334 C.3     1  UNL1        0.0721
     21 C         142.8587  138.5000  159.9394 C.3     1  UNL1        0.0187
     22 C         142.9471  137.9013  161.3120 C.3     1  UNL1        0.0174
     23 C         141.5541  137.7773  161.8542 C.3     1  UNL1        0.0576
     24 C         141.1767  137.2278  163.1979 C.3     1  UNL1        0.0173
@<TRIPOS>BOND
     1    11    12    1
     2    12    13    2
     3    13    14    1
     4    14    15    2
     5    15    16    1
     6    16     1    1
     7     1     2   ar
     8     2     3   ar
     9     3     4   ar
    10     4     5   ar
    11     5     6   ar
    12     6    17    1
    13    17    18    1
    14    18    19    1
    15    19    20    1
    16    20    21    1
    17    21    22    1
    18    22    23    1
    19    23    24    1
    20     6     7   ar
    21     7     8   ar
    22     8     9   ar
    23     9    10   ar
    24    16    12    1
    25    10     1   ar
    26     9     4   ar
    27    23    19    1
@<TRIPOS>MOLECULE
*****
 24 27 0 0 0
SMALL
GASTEIGER

@<TRIPOS>ATOM
      1 C         140.3014  141.6389  168.1686 C.ar    1  UNL1        0.0697
      2 C         140.6286  142.6712  167.1307 C.ar    1  UNL1        0.0155
      3 C         140.3186  142.4077  165.6870 C.ar    1  UNL1        0.0027
      4 C         139.6812  141.1119  165.2812 C.ar    1  UNL1        0.0174
      5 C         139.3711  140.8484  163.8373 C.ar    1  UNL1       -0.0027
      6 C         138.7338  139.5526  163.4315 C.ar    1  UNL1       -0.0207
      7 C         138.4065  138.5203  164.4695 C.ar    1  UNL1       -0.0027
      8 C         138.7166  138.7838  165.9132 C.ar    1  UNL1        0.0188
      9 C         139.3539  140.0796  166.3190 C.ar    1  UNL1        0.0809
     10 N         139.6640  140.3431  167.7627 N.ar    1  UNL1       -0.2489
     11 C         143.2557  141.5170  169.5494 C.3     1  UNL1        0.0499
     12 C         141.9694  141.8463  170.2471 C.2     1  UNL1        0.0696
     13 N         141.8151  142.1774  171.7019 N.2     1  UNL1       -0.1562
     14 N         140.3618  142.4381  171.9664 N.2     1  UNL1       -0.1510
     15 C         139.6179  142.2681  170.6751 C.2     1  UNL1        0.1070
     16 C         140.6114  141.9023  169.6124 C.3     1  UNL1        0.1209
     17 C         138.4237  139.2891  161.9878 C.3     1  UNL1        0.0437
     18 C         139.1110  138.1684  161.2655 C.3     1  UNL1        0.0768
     19 N         140.5946  138.2135  161.0495 N.3     1  UNL1       -0.2737
     20 C         141.2916  138.7133  159.8188 C.3     1  UNL1        0.0721
     21 C         142.7695  138.5755  160.0349 C.3     1  UNL1        0.0187
     22 C         142.9859  137.9905  161.3992 C.3     1  UNL1        0.0174
     23 C         141.6417  137.7668  162.0261 C.3     1  UNL1        0.0576
     24 C         141.3891  137.1965  163.3903 C.3     1  UNL1        0.0173
@<TRIPOS>BOND
     1    11    12    1
     2    12    13    2
     3    13    14    1
     4    14    15    2
     5    15    16    1
     6    16     1    1
     7     1     2   ar
     8     2     3   ar
     9     3     4   ar
    10     4     5   ar
    11     5     6   ar
    12     6    17    1
    13    17    18    1
    14    18    19    1
    15    19    20    1
    16    20    21    1
    17    21    22    1
    18    22    23    1
    19    23    24    1
    20     6     7   ar
    21     7     8   ar
    22     8     9   ar
    23     9    10   ar
    24    16    12    1
    25    10     1   ar
    26     9     4   ar
    27    23    19    1
@<TRIPOS>MOLECULE
*****
 24 27 0 0 0
SMALL
GASTEIGER

@<TRIPOS>ATOM
      1 C         142.2783  140.7533  168.4248 C.ar    1  UNL1        0.0697
      2 C         142.6866  139.3120  168.3485 C.ar    1  UNL1        0.0155
      3 C         143.1302  138.7265  167.0407 C.ar    1  UNL1        0.0027
      4 C         143.1655  139.5823  165.8093 C.ar    1  UNL1        0.0174
      5 C         143.6091  138.9968  164.5014 C.ar    1  UNL1       -0.0027
      6 C         143.6444  139.8526  163.2700 C.ar    1  UNL1       -0.0207
      7 C         143.2361  141.2939  163.3465 C.ar    1  UNL1       -0.0027
      8 C         142.7925  141.8794  164.6543 C.ar    1  UNL1        0.0188
      9 C         142.7572  141.0236  165.8857 C.ar    1  UNL1        0.0809
     10 N         142.3136  141.6091  167.1934 N.ar    1  UNL1       -0.2489
     11 C         139.2909  140.5182  169.7170 C.3     1  UNL1        0.0499
     12 C         140.4616  141.2308  170.3266 C.2     1  UNL1        0.0696
     13 N         140.4646  141.9605  171.6372 N.2     1  UNL1       -0.1562
     14 N         141.8397  142.5195  171.8533 N.2     1  UNL1       -0.1510
     15 C         142.6865  142.1354  170.6762 C.2     1  UNL1        0.1070
     16 C         141.8347  141.3389  169.7327 C.3     1  UNL1        0.1209
     17 C         144.0880  139.2671  161.9622 C.3     1  UNL1        0.0437
     18 C         143.3571  138.0940  161.3792 C.3     1  UNL1        0.0768
     19 N         141.8886  138.1935  161.0901 N.3     1  UNL1       -0.2737
     20 C         141.2720  138.7287  159.8318 C.3     1  UNL1        0.0721
     21 C         139.7812  138.6413  159.9726 C.3     1  UNL1        0.0187
     22 C         139.4764  138.0522  161.3180 C.3     1  UNL1        0.0174
     23 C         140.7789  137.7755  162.0086 C.3     1  UNL1        0.0576
     24 C         140.9428  137.1844  163.3775 C.3     1  UNL1        0.0173
@<TRIPOS>BOND
     1    11    12    1
     2    12    13    2
     3    13    14    1
     4    14    15    2
     5    15    16    1
     6    16     1    1
     7     1     2   ar
     8     2     3   ar
     9     3     4   ar
    10     4     5   ar
    11     5     6   ar
    12     6    17    1
    13    17    18    1
    14    18    19    1
    15    19    20    1
    16    20    21    1
    17    21    22    1
    18    22    23    1
    19    23    24    1
    20     6     7   ar
    21     7     8   ar
    22     8     9   ar
    23     9    10   ar
    24    16    12    1
    25    10     1   ar
    26     9     4   ar
    27    23    19    1
@<TRIPOS>MOLECULE
*****
 24 27 0 0 0
SMALL
GASTEIGER

@<TRIPOS>ATOM
      1 C         140.7758  141.5483  168.0448 C.ar    1  UNL1        0.0697
      2 C         141.8084  142.2462  167.2102 C.ar    1  UNL1        0.0155
      3 C         141.6679  142.2804  165.7172 C.ar    1  UNL1        0.0027
      4 C         140.4949  141.6166  165.0588 C.ar    1  UNL1        0.0174
      5 C         140.3545  141.6508  163.5657 C.ar    1  UNL1       -0.0027
      6 C         139.1815  140.9870  162.9074 C.ar    1  UNL1       -0.0207
      7 C         138.1489  140.2891  163.7421 C.ar    1  UNL1       -0.0027
      8 C         138.2894  140.2549  165.2351 C.ar    1  UNL1        0.0188
      9 C         139.4624  140.9187  165.8934 C.ar    1  UNL1        0.0809
     10 N         139.6028  140.8845  167.3864 N.ar    1  UNL1       -0.2489
     11 C         142.3883  139.2949  169.7688 C.3     1  UNL1        0.0499
     12 C         141.6574  140.4783  170.3302 C.2     1  UNL1        0.0696
     13 N         141.5394  140.8337  171.7827 N.2     1  UNL1       -0.1562
     14 N         140.7252  142.0892  171.8881 N.2     1  UNL1       -0.1510
     15 C         140.3401  142.5096  170.5006 C.2     1  UNL1        0.1070
     16 C         140.9163  141.5141  169.5379 C.3     1  UNL1        0.1209
     17 C         139.0410  141.0212  161.4144 C.3     1  UNL1        0.0437
     18 C         138.4743  142.2365  160.7420 C.3     1  UNL1        0.0768
     19 N         139.0732  143.5865  161.0039 N.3     1  UNL1       -0.2737
     20 C         140.1306  144.2572  160.1781 C.3     1  UNL1        0.0721
     21 C         140.4309  145.5881  160.8014 C.3     1  UNL1        0.0187
     22 C         139.5590  145.7399  162.0126 C.3     1  UNL1        0.0174
     23 C         138.7200  144.5028  162.1377 C.3     1  UNL1        0.0576
     24 C         137.7057  144.2300  163.2086 C.3     1  UNL1        0.0173
@<TRIPOS>BOND
     1    11    12    1
     2    12    13    2
     3    13    14    1
     4    14    15    2
     5    15    16    1
     6    16     1    1
     7     1     2   ar
     8     2     3   ar
     9     3     4   ar
    10     4     5   ar
    11     5     6   ar
    12     6    17    1
    13    17    18    1
    14    18    19    1
    15    19    20    1
    16    20    21    1
    17    21    22    1
    18    22    23    1
    19    23    24    1
    20     6     7   ar
    21     7     8   ar
    22     8     9   ar
    23     9    10   ar
    24    16    12    1
    25    10     1   ar
    26     9     4   ar
    27    23    19    1
@<TRIPOS>MOLECULE
*****
 24 27 0 0 0
SMALL
GASTEIGER

@<TRIPOS>ATOM
      1 C         141.3463  141.5678  167.9957 C.ar    1  UNL1        0.0697
      2 C         140.6730  142.4787  167.0125 C.ar    1  UNL1        0.0155
      3 C         140.7536  142.1874  165.5433 C.ar    1  UNL1        0.0027
      4 C         141.5076  140.9852  165.0573 C.ar    1  UNL1        0.0174
      5 C         141.5883  140.6940  163.5880 C.ar    1  UNL1       -0.0027
      6 C         142.3423  139.4918  163.1021 C.ar    1  UNL1       -0.0207
      7 C         143.0157  138.5808  164.0854 C.ar    1  UNL1       -0.0027
      8 C         142.9350  138.8721  165.5546 C.ar    1  UNL1        0.0188
      9 C         142.1810  140.0743  166.0406 C.ar    1  UNL1        0.0809
     10 N         142.1003  140.3656  167.5098 N.ar    1  UNL1       -0.2489
     11 C         143.8453  142.3828  169.9298 C.3     1  UNL1        0.0499
     12 C         142.4143  142.2336  170.3540 C.2     1  UNL1        0.0696
     13 N         141.8807  142.4329  171.7416 N.2     1  UNL1       -0.1562
     14 N         140.4022  142.1815  171.7103 N.2     1  UNL1       -0.1510
     15 C         140.0221  141.8268  170.3033 C.2     1  UNL1        0.1070
     16 C         141.2657  141.8590  169.4650 C.3     1  UNL1        0.1209
     17 C         142.4230  139.2005  161.6329 C.3     1  UNL1        0.0437
     18 C         141.3939  138.3224  160.9847 C.3     1  UNL1        0.0768
     19 N         139.9495  138.7268  160.9943 N.3     1  UNL1       -0.2737
     20 C         139.2557  139.5441  159.9451 C.3     1  UNL1        0.0721
     21 C         137.8227  139.7074  160.3571 C.3     1  UNL1        0.0187
     22 C         137.6308  138.9910  161.6610 C.3     1  UNL1        0.0174
     23 C         138.9453  138.3850  162.0547 C.3     1  UNL1        0.0576
     24 C         139.2091  137.5788  163.2918 C.3     1  UNL1        0.0173
@<TRIPOS>BOND
     1    11    12    1
     2    12    13    2
     3    13    14    1
     4    14    15    2
     5    15    16    1
     6    16     1    1
     7     1     2   ar
     8     2     3   ar
     9     3     4   ar
    10     4     5   ar
    11     5     6   ar
    12     6    17    1
    13    17    18    1
    14    18    19    1
    15    19    20    1
    16    20    21    1
    17    21    22    1
    18    22    23    1
    19    23    24    1
    20     6     7   ar
    21     7     8   ar
    22     8     9   ar
    23     9    10   ar
    24    16    12    1
    25    10     1   ar
    26     9     4   ar
    27    23    19    1
@<TRIPOS>MOLECULE
*****
 24 27 0 0 0
SMALL
GASTEIGER

@<TRIPOS>ATOM
      1 C         140.9909  141.3111  168.0954 C.ar    1  UNL1        0.0697
      2 C         142.0878  140.3396  168.4163 C.ar    1  UNL1        0.0155
      3 C         142.6975  139.5099  167.3256 C.ar    1  UNL1        0.0027
      4 C         142.2104  139.6515  165.9140 C.ar    1  UNL1        0.0174
      5 C         142.8202  138.8217  164.8233 C.ar    1  UNL1       -0.0027
      6 C         142.3330  138.9634  163.4117 C.ar    1  UNL1       -0.0207
      7 C         141.2361  139.9349  163.0908 C.ar    1  UNL1       -0.0027
      8 C         140.6263  140.7647  164.1815 C.ar    1  UNL1        0.0188
      9 C         141.1135  140.6230  165.5931 C.ar    1  UNL1        0.0809
     10 N         140.5037  141.4528  166.6838 N.ar    1  UNL1       -0.2489
     11 C         138.6968  140.3289  170.1983 C.3     1  UNL1        0.0499
     12 C         139.3266  141.6895  170.1526 C.2     1  UNL1        0.0696
     13 N         139.0126  142.8374  171.0656 N.2     1  UNL1       -0.1562
     14 N         139.8730  143.9985  170.6633 N.2     1  UNL1       -0.1510
     15 C         140.7187  143.5680  169.5017 C.2     1  UNL1        0.1070
     16 C         140.3811  142.1410  169.1861 C.3     1  UNL1        0.1209
     17 C         142.9427  138.1336  162.3210 C.3     1  UNL1        0.0437
     18 C         144.1173  138.6566  161.5483 C.3     1  UNL1        0.0768
     19 N         144.2056  140.1162  161.2143 N.3     1  UNL1       -0.2737
     20 C         143.7131  140.7637  159.9541 C.3     1  UNL1        0.0721
     21 C         144.0049  142.2324  160.0429 C.3     1  UNL1        0.0187
     22 C         144.6778  142.4925  161.3580 C.3     1  UNL1        0.0174
     23 C         144.8018  141.1847  162.0820 C.3     1  UNL1        0.0576
     24 C         145.4145  140.9811  163.4359 C.3     1  UNL1        0.0173
@<TRIPOS>BOND
     1    11    12    1
     2    12    13    2
     3    13    14    1
     4    14    15    2
     5    15    16    1
     6    16     1    1
     7     1     2   ar
     8     2     3   ar
     9     3     4   ar
    10     4     5   ar
    11     5     6   ar
    12     6    17    1
    13    17    18    1
    14    18    19    1
    15    19    20    1
    16    20    21    1
    17    21    22    1
    18    22    23    1
    19    23    24    1
    20     6     7   ar
    21     7     8   ar
    22     8     9   ar
    23     9    10   ar
    24    16    12    1
    25    10     1   ar
    26     9     4   ar
    27    23    19    1
@<TRIPOS>MOLECULE
*****
 24 27 0 0 0
SMALL
GASTEIGER

@<TRIPOS>ATOM
      1 C         140.1351  140.2295  168.2928 C.ar    1  UNL1        0.0697
      2 C         138.7518  139.7032  168.0491 C.ar    1  UNL1        0.0155
      3 C         138.3936  139.1267  166.7114 C.ar    1  UNL1        0.0027
      4 C         139.4188  139.0764  165.6176 C.ar    1  UNL1        0.0174
      5 C         139.0605  138.4999  164.2799 C.ar    1  UNL1       -0.0027
      6 C         140.0857  138.4496  163.1860 C.ar    1  UNL1       -0.0207
      7 C         141.4690  138.9759  163.4298 C.ar    1  UNL1       -0.0027
      8 C         141.8272  139.5525  164.7674 C.ar    1  UNL1        0.0188
      9 C         140.8021  139.6027  165.8613 C.ar    1  UNL1        0.0809
     10 N         141.1602  140.1792  167.1989 N.ar    1  UNL1       -0.2489
     11 C         142.5803  139.2415  170.2150 C.3     1  UNL1        0.0499
     12 C         141.6172  140.3519  170.5140 C.2     1  UNL1        0.0696
     13 N         141.6090  141.2032  171.7490 N.2     1  UNL1       -0.1562
     14 N         140.4800  142.1835  171.6288 N.2     1  UNL1       -0.1510
     15 C         139.7905  141.9380  170.3195 C.2     1  UNL1        0.1070
     16 C         140.4933  140.8061  169.6305 C.3     1  UNL1        0.1209
     17 C         139.7275  137.8731  161.8484 C.3     1  UNL1        0.0437
     18 C         138.9886  138.7084  160.8452 C.3     1  UNL1        0.0768
     19 N         138.8970  140.1943  161.0283 N.3     1  UNL1       -0.2737
     20 C         137.7249  140.9428  161.5905 C.3     1  UNL1        0.0721
     21 C         138.0650  142.4037  161.5911 C.3     1  UNL1        0.0187
     22 C         139.4473  142.5581  161.0293 C.3     1  UNL1        0.0174
     23 C         139.9614  141.1926  160.6815 C.3     1  UNL1        0.0576
     24 C         141.3043  140.8803  160.0907 C.3     1  UNL1        0.0173
@<TRIPOS>BOND
     1    11    12    1
     2    12    13    2
     3    13    14    1
     4    14    15    2
     5    15    16    1
     6    16     1    1
     7     1     2   ar
     8     2     3   ar
     9     3     4   ar
    10     4     5   ar
    11     5     6   ar
    12     6    17    1
    13    17    18    1
    14    18    19    1
    15    19    20    1
    16    20    21    1
    17    21    22    1
    18    22    23    1
    19    23    24    1
    20     6     7   ar
    21     7     8   ar
    22     8     9   ar
    23     9    10   ar
    24    16    12    1
    25    10     1   ar
    26     9     4   ar
    27    23    19    1
@<TRIPOS>MOLECULE
*****
 24 27 0 0 0
SMALL
GASTEIGER

@<TRIPOS>ATOM
      1 C         140.8008  140.2750  168.3103 C.ar    1  UNL1        0.0697
      2 C         142.1517  139.9566  167.7416 C.ar    1  UNL1        0.0155
      3 C         142.2701  139.4173  166.3469 C.ar    1  UNL1        0.0027
      4 C         141.0376  139.1965  165.5210 C.ar    1  UNL1        0.0174
      5 C         141.1560  138.6572  164.1263 C.ar    1  UNL1       -0.0027
      6 C         139.9235  138.4364  163.3004 C.ar    1  UNL1       -0.0207
      7 C         138.5725  138.7549  163.8692 C.ar    1  UNL1       -0.0027
      8 C         138.4541  139.2942  165.2639 C.ar    1  UNL1        0.0188
      9 C         139.6866  139.5150  166.0898 C.ar    1  UNL1        0.0809
     10 N         139.5683  140.0542  167.4844 N.ar    1  UNL1       -0.2489
     11 C         140.4458  143.4139  169.1296 C.3     1  UNL1        0.0499
     12 C         140.5192  142.2571  170.0816 C.2     1  UNL1        0.0696
     13 N         140.4423  142.3399  171.5774 N.2     1  UNL1       -0.1562
     14 N         140.5579  140.9483  172.1253 N.2     1  UNL1       -0.1510
     15 C         140.7063  140.0055  170.9681 C.2     1  UNL1        0.1070
     16 C         140.6824  140.8143  169.7051 C.3     1  UNL1        0.1209
     17 C         140.0418  137.8971  161.9057 C.3     1  UNL1        0.0437
     18 C         139.6325  138.7437  160.7370 C.3     1  UNL1        0.0768
     19 N         139.3999  140.2141  160.9208 N.3     1  UNL1       -0.2737
     20 C         138.0672  140.9024  160.9234 C.3     1  UNL1        0.0721
     21 C         138.3029  142.3681  161.1386 C.3     1  UNL1        0.0187
     22 C         139.7813  142.5855  161.2690 C.3     1  UNL1        0.0174
     23 C         140.4593  141.2543  161.1345 C.3     1  UNL1        0.0576
     24 C         141.9372  141.0067  161.2017 C.3     1  UNL1        0.0173
@<TRIPOS>BOND
     1    11    12    1
     2    12    13    2
     3    13    14    1
     4    14    15    2
     5    15    16    1
     6    16     1    1
     7     1     2   ar
     8     2     3   ar
     9     3     4   ar
    10     4     5   ar
    11     5     6   ar
    12     6    17    1
    13    17    18    1
    14    18    19    1
    15    19    20    1
    16    20    21    1
    17    21    22    1
    18    22    23    1
    19    23    24    1
    20     6     7   ar
    21     7     8   ar
    22     8     9   ar
    23     9    10   ar
    24    16    12    1
    25    10     1   ar
    26     9     4   ar
    27    23    19    1
@<TRIPOS>MOLECULE
*****
 24 27 0 0 0
SMALL
GASTEIGER

@<TRIPOS>ATOM
      1 C         141.5865  138.2665  159.5586 C.ar    1  UNL1        0.0697
      2 C         140.1064  138.4450  159.3932 C.ar    1  UNL1        0.0155
      3 C         139.2018  138.3513  160.5859 C.ar    1  UNL1        0.0027
      4 C         139.7772  138.0792  161.9442 C.ar    1  UNL1        0.0174
      5 C         138.8724  137.9856  163.1370 C.ar    1  UNL1       -0.0027
      6 C         139.4478  137.7134  164.4952 C.ar    1  UNL1       -0.0207
      7 C         140.9280  137.5349  164.6607 C.ar    1  UNL1       -0.0027
      8 C         141.8327  137.6286  163.4679 C.ar    1  UNL1        0.0188
      9 C         141.2573  137.9007  162.1097 C.ar    1  UNL1        0.0809
     10 N         142.1620  137.9944  160.9169 N.ar    1  UNL1       -0.2489
     11 C         143.3492  140.8712  158.6877 C.3     1  UNL1        0.0499
     12 C         143.3015  139.5574  157.9656 C.2     1  UNL1        0.0696
     13 N         144.0556  139.2101  156.7163 N.2     1  UNL1       -0.1562
     14 N         143.7115  137.7982  156.3444 N.2     1  UNL1       -0.1510
     15 C         142.7447  137.2729  157.3639 C.2     1  UNL1        0.1070
     16 C         142.4913  138.3601  158.3658 C.3     1  UNL1        0.1209
     17 C         138.5432  137.6198  165.6880 C.3     1  UNL1        0.0437
     18 C         137.9935  138.8681  166.3123 C.3     1  UNL1        0.0768
     19 N         138.7104  140.1737  166.1350 N.3     1  UNL1       -0.2737
     20 C         138.4682  141.1710  165.0410 C.3     1  UNL1        0.0721
     21 C         139.4034  142.3249  165.2503 C.3     1  UNL1        0.0187
     22 C         140.2236  142.0407  166.4737 C.3     1  UNL1        0.0174
     23 C         139.7953  140.7112  167.0204 C.3     1  UNL1        0.0576
     24 C         140.3538  140.0375  168.2387 C.3     1  UNL1        0.0173
@<TRIPOS>BOND
     1    11    12    1
     2    12    13    2
     3    13    14    1
     4    14    15    2
     5    15    16    1
     6    16     1    1
     7     1     2   ar
     8     2     3   ar
     9     3     4   ar
    10     4     5   ar
    11     5     6   ar
    12     6    17    1
    13    17    18    1
    14    18    19    1
    15    19    20    1
    16    20    21    1
    17    21    22    1
    18    22    23    1
    19    23    24    1
    20     6     7   ar
    21     7     8   ar
    22     8     9   ar
    23     9    10   ar
    24    16    12    1
    25    10     1   ar
    26     9     4   ar
    27    23    19    1
