@<TRIPOS>MOLECULE
*****
 31 33 0 0 0
SMALL
GASTEIGER

@<TRIPOS>ATOM
      1 C         139.9191  141.7942  164.9244 C.ar    1  UNL1        0.1525
      2 C         140.8776  141.0393  164.0517 C.ar    1  UNL1        0.1337
      3 N         140.8023  141.1779  162.5601 N.ar    1  UNL1       -0.2316
      4 C         139.7687  142.0713  161.9410 C.ar    1  UNL1        0.1420
      5 C         138.8102  142.8262  162.8136 C.ar    1  UNL1        0.1508
      6 N         137.7765  143.7197  162.1946 N.pl3   1  UNL1       -0.3410
      7 N         138.8854  142.6876  164.3053 N.ar    1  UNL1       -0.2128
      8 H         137.7271  143.8107  161.2156 H       1  UNL1        0.1438
      9 H         137.1474  144.2151  162.7674 H       1  UNL1        0.1438
     10 C         140.4805  142.1927  170.6137 C.3     1  UNL1        0.0015
     11 C         140.1448  141.3784  169.3994 C.3     1  UNL1        0.0176
     12 C         139.7325  140.2076  168.5573 C.3     1  UNL1        0.0228
     13 C         139.6573  140.3462  167.0656 C.3     1  UNL1        0.0922
     14 N         139.9943  141.6556  166.4161 N.pl3   1  UNL1       -0.2920
     15 C         140.4066  142.8263  167.2582 C.3     1  UNL1        0.0922
     16 C         140.4818  142.6877  168.7499 C.3     1  UNL1        0.0228
     17 C         139.9243  140.3518  170.4707 C.3     1  UNL1        0.0652
     18 N         140.6467  140.4672  171.7802 N.3     1  UNL1       -0.3211
     19 H         141.6477  140.3432  171.6283 H       1  UNL1        0.1189
     20 H         140.3082  139.7483  172.4197 H       1  UNL1        0.1189
     21 S         139.6935  142.2099  160.4493 S.3     1  UNL1       -0.0643
     22 C         140.6009  143.1698  159.7386 C.ar    1  UNL1        0.0458
     23 C         140.2061  144.6099  159.5964 C.ar    1  UNL1        0.0281
     24 C         141.1135  145.5698  158.8857 C.ar    1  UNL1        0.1009
     25 N         142.4158  145.0895  158.3170 N.ar    1  UNL1       -0.2287
     26 C         142.8107  143.6494  158.4591 C.ar    1  UNL1        0.1365
     27 N         144.1130  143.1692  157.8904 N.pl3   1  UNL1       -0.3419
     28 C         141.9032  142.6895  159.1699 C.ar    1  UNL1        0.0947
     29 CL        142.2981  141.2495  159.3120 Cl      1  UNL1       -0.0788
     30 H         144.7085  143.7992  157.4239 H       1  UNL1        0.1437
     31 H         144.3721  142.2240  157.9837 H       1  UNL1        0.1437
@<TRIPOS>BOND
     1    10    11    1
     2    11    17    1
     3    17    18    1
     4    11    12    1
     5    12    13    1
     6    13    14    1
     7    14     1    1
     8     1     2   ar
     9     2     3   ar
    10     3     4   ar
    11     4    21    1
    12    21    22    1
    13    22    23   ar
    14    23    24   ar
    15    24    25   ar
    16    25    26   ar
    17    26    27    1
    18    26    28   ar
    19    28    29    1
    20     4     5   ar
    21     5     6    1
    22     5     7   ar
    23    14    15    1
    24    15    16    1
    25    16    11    1
    26     7     1   ar
    27    28    22   ar
    28    18    19    1
    29    18    20    1
    30    27    30    1
    31    27    31    1
    32     6     8    1
    33     6     9    1
@<TRIPOS>MOLECULE
*****
 31 33 0 0 0
SMALL
GASTEIGER

@<TRIPOS>ATOM
      1 C         140.7916  142.6756  164.5601 C.ar    1  UNL1        0.1525
      2 C         141.6398  142.0695  163.4817 C.ar    1  UNL1        0.1337
      3 N         141.1905  142.1288  162.0518 N.ar    1  UNL1       -0.2316
      4 C         139.8929  142.7942  161.7004 C.ar    1  UNL1        0.1420
      5 C         139.0447  143.4003  162.7789 C.ar    1  UNL1        0.1508
      6 N         137.7471  144.0657  162.4275 N.pl3   1  UNL1       -0.3410
      7 N         139.4941  143.3410  164.2087 N.ar    1  UNL1       -0.2128
      8 H         137.4521  144.1047  161.4890 H       1  UNL1        0.1438
      9 H         137.1903  144.4635  163.1353 H       1  UNL1        0.1438
     10 C         143.3788  142.2410  169.6552 C.3     1  UNL1        0.0015
     11 C         142.1397  142.4976  168.8498 C.3     1  UNL1        0.0176
     12 C         140.7092  142.8118  168.5256 C.3     1  UNL1        0.0228
     13 C         140.2599  142.8711  167.0957 C.3     1  UNL1        0.0922
     14 N         141.2410  142.6163  165.9900 N.pl3   1  UNL1       -0.2920
     15 C         142.6714  142.3021  166.3143 C.3     1  UNL1        0.0922
     16 C         143.1207  142.2427  167.7442 C.3     1  UNL1        0.0228
     17 C         141.5889  142.6634  170.2352 C.3     1  UNL1        0.0652
     18 N         142.5178  142.6971  171.4125 N.3     1  UNL1       -0.3211
     19 H         142.9690  141.7882  171.5157 H       1  UNL1        0.1189
     20 H         141.9883  142.9118  172.2574 H       1  UNL1        0.1189
     21 S         139.4436  142.8535  160.2705 S.3     1  UNL1       -0.0643
     22 C         140.4345  143.1518  159.1847 C.ar    1  UNL1        0.0458
     23 C         140.9133  142.0524  158.2835 C.ar    1  UNL1        0.0281
     24 C         141.9043  142.3506  157.1977 C.ar    1  UNL1        0.1009
     25 N         142.4165  143.7483  157.0130 N.ar    1  UNL1       -0.2287
     26 C         141.9377  144.8477  157.9141 C.ar    1  UNL1        0.1365
     27 N         142.4499  146.2454  157.7294 N.pl3   1  UNL1       -0.3419
     28 C         140.9467  144.5495  159.0000 C.ar    1  UNL1        0.0947
     29 CL        140.4680  145.6489  159.9011 Cl      1  UNL1       -0.0788
     30 H         143.1003  146.4412  157.0167 H       1  UNL1        0.1437
     31 H         142.1357  146.9670  158.3209 H       1  UNL1        0.1437
@<TRIPOS>BOND
     1    10    11    1
     2    11    17    1
     3    17    18    1
     4    11    12    1
     5    12    13    1
     6    13    14    1
     7    14     1    1
     8     1     2   ar
     9     2     3   ar
    10     3     4   ar
    11     4    21    1
    12    21    22    1
    13    22    23   ar
    14    23    24   ar
    15    24    25   ar
    16    25    26   ar
    17    26    27    1
    18    26    28   ar
    19    28    29    1
    20     4     5   ar
    21     5     6    1
    22     5     7   ar
    23    14    15    1
    24    15    16    1
    25    16    11    1
    26     7     1   ar
    27    28    22   ar
    28    18    19    1
    29    18    20    1
    30    27    30    1
    31    27    31    1
    32     6     8    1
    33     6     9    1
@<TRIPOS>MOLECULE
*****
 31 33 0 0 0
SMALL
GASTEIGER

@<TRIPOS>ATOM
      1 C         139.8384  140.2188  165.5130 C.ar    1  UNL1        0.1525
      2 C         140.7829  139.1314  165.0943 C.ar    1  UNL1        0.1337
      3 N         140.5869  138.4320  163.7819 N.ar    1  UNL1       -0.2316
      4 C         139.4464  138.8198  162.8883 C.ar    1  UNL1        0.1420
      5 C         138.5018  139.9072  163.3070 C.ar    1  UNL1        0.1508
      6 N         137.3611  140.2951  162.4134 N.pl3   1  UNL1       -0.3410
      7 N         138.6978  140.6067  164.6194 N.ar    1  UNL1       -0.2128
      8 H         137.2325  139.8360  161.5520 H       1  UNL1        0.1438
      9 H         136.7412  141.0088  162.6882 H       1  UNL1        0.1438
     10 C         140.6830  143.6921  169.9923 C.3     1  UNL1        0.0015
     11 C         140.4264  142.3173  169.4501 C.3     1  UNL1        0.0176
     12 C         140.1849  140.8372  169.4178 C.3     1  UNL1        0.0228
     13 C         139.9889  140.1378  168.1054 C.3     1  UNL1        0.0922
     14 N         140.0344  140.9183  166.8253 N.pl3   1  UNL1       -0.2920
     15 C         140.2758  142.3984  166.8576 C.3     1  UNL1        0.0922
     16 C         140.4718  143.0979  168.1700 C.3     1  UNL1        0.0228
     17 C         140.4700  142.0142  170.9185 C.3     1  UNL1        0.0652
     18 N         141.7631  142.1291  171.6699 N.3     1  UNL1       -0.3211
     19 H         142.4174  141.4240  171.3305 H       1  UNL1        0.1189
     20 H         141.5923  141.9835  172.6649 H       1  UNL1        0.1189
     21 S         139.2504  138.1203  161.5759 S.3     1  UNL1       -0.0643
     22 C         139.8530  138.6890  160.3256 C.ar    1  UNL1        0.0458
     23 C         139.0004  139.4702  159.3701 C.ar    1  UNL1        0.0281
     24 C         139.6031  140.0389  158.1198 C.ar    1  UNL1        0.1009
     25 N         141.0584  139.8263  157.8248 N.ar    1  UNL1       -0.2287
     26 C         141.9110  139.0451  158.7802 C.ar    1  UNL1        0.1365
     27 N         143.3662  138.8326  158.4852 N.pl3   1  UNL1       -0.3419
     28 C         141.3083  138.4764  160.0306 C.ar    1  UNL1        0.0947
     29 CL        142.1609  137.6952  160.9860 Cl      1  UNL1       -0.0788
     30 H         143.7618  139.2058  157.6646 H       1  UNL1        0.1437
     31 H         143.9258  138.3199  159.1123 H       1  UNL1        0.1437
@<TRIPOS>BOND
     1    10    11    1
     2    11    17    1
     3    17    18    1
     4    11    12    1
     5    12    13    1
     6    13    14    1
     7    14     1    1
     8     1     2   ar
     9     2     3   ar
    10     3     4   ar
    11     4    21    1
    12    21    22    1
    13    22    23   ar
    14    23    24   ar
    15    24    25   ar
    16    25    26   ar
    17    26    27    1
    18    26    28   ar
    19    28    29    1
    20     4     5   ar
    21     5     6    1
    22     5     7   ar
    23    14    15    1
    24    15    16    1
    25    16    11    1
    26     7     1   ar
    27    28    22   ar
    28    18    19    1
    29    18    20    1
    30    27    30    1
    31    27    31    1
    32     6     8    1
    33     6     9    1
@<TRIPOS>MOLECULE
*****
 31 33 0 0 0
SMALL
GASTEIGER

@<TRIPOS>ATOM
      1 C         142.2047  142.5070  164.9564 C.ar    1  UNL1        0.1525
      2 C         141.3250  141.6744  164.0717 C.ar    1  UNL1        0.1337
      3 N         141.5500  141.6613  162.5887 N.ar    1  UNL1       -0.2316
      4 C         142.6547  142.4809  161.9904 C.ar    1  UNL1        0.1420
      5 C         143.5344  143.3135  162.8752 C.ar    1  UNL1        0.1508
      6 N         144.6392  144.1331  162.2770 N.pl3   1  UNL1       -0.3410
      7 N         143.3094  143.3266  164.3582 N.ar    1  UNL1       -0.2128
      8 H         144.7868  144.1246  161.3036 H       1  UNL1        0.1438
      9 H         145.2166  144.6796  162.8577 H       1  UNL1        0.1438
     10 C         142.2957  142.3870  170.6852 C.3     1  UNL1        0.0015
     11 C         141.5298  142.5461  169.4053 C.3     1  UNL1        0.0176
     12 C         140.3782  142.7675  168.4701 C.3     1  UNL1        0.0228
     13 C         140.6032  142.7545  166.9871 C.3     1  UNL1        0.0922
     14 N         141.9798  142.5200  166.4394 N.pl3   1  UNL1       -0.2920
     15 C         143.1314  142.2987  167.3746 C.3     1  UNL1        0.0922
     16 C         142.9064  142.3117  168.8576 C.3     1  UNL1        0.0228
     17 C         140.4192  142.7253  170.3975 C.3     1  UNL1        0.0652
     18 N         140.5717  142.2049  171.7961 N.3     1  UNL1       -0.3211
     19 H         140.6204  141.1862  171.7764 H       1  UNL1        0.1189
     20 H         139.7709  142.4962  172.3565 H       1  UNL1        0.1189
     21 S         142.8797  142.4678  160.5075 S.3     1  UNL1       -0.0643
     22 C         142.2836  143.5438  159.6490 C.ar    1  UNL1        0.0458
     23 C         141.1535  144.3804  160.1716 C.ar    1  UNL1        0.0281
     24 C         140.5575  145.4563  159.3131 C.ar    1  UNL1        0.1009
     25 N         141.0915  145.6957  157.9320 N.ar    1  UNL1       -0.2287
     26 C         142.2215  144.8592  157.4093 C.ar    1  UNL1        0.1365
     27 N         142.7556  145.0986  156.0282 N.pl3   1  UNL1       -0.3419
     28 C         142.8176  143.7832  158.2678 C.ar    1  UNL1        0.0947
     29 CL        143.9477  142.9466  157.7452 Cl      1  UNL1       -0.0788
     30 H         142.3643  145.8048  155.4647 H       1  UNL1        0.1437
     31 H         143.4972  144.5495  155.6852 H       1  UNL1        0.1437
@<TRIPOS>BOND
     1    10    11    1
     2    11    17    1
     3    17    18    1
     4    11    12    1
     5    12    13    1
     6    13    14    1
     7    14     1    1
     8     1     2   ar
     9     2     3   ar
    10     3     4   ar
    11     4    21    1
    12    21    22    1
    13    22    23   ar
    14    23    24   ar
    15    24    25   ar
    16    25    26   ar
    17    26    27    1
    18    26    28   ar
    19    28    29    1
    20     4     5   ar
    21     5     6    1
    22     5     7   ar
    23    14    15    1
    24    15    16    1
    25    16    11    1
    26     7     1   ar
    27    28    22   ar
    28    18    19    1
    29    18    20    1
    30    27    30    1
    31    27    31    1
    32     6     8    1
    33     6     9    1
@<TRIPOS>MOLECULE
*****
 31 33 0 0 0
SMALL
GASTEIGER

@<TRIPOS>ATOM
      1 C         141.8101  140.3665  165.4006 C.ar    1  UNL1        0.1525
      2 C         140.5596  139.8018  164.7945 C.ar    1  UNL1        0.1337
      3 N         140.6368  138.9893  163.5360 N.ar    1  UNL1       -0.2316
      4 C         141.9645  138.7415  162.8835 C.ar    1  UNL1        0.1420
      5 C         143.2150  139.3062  163.4895 C.ar    1  UNL1        0.1508
      6 N         144.5428  139.0584  162.8370 N.pl3   1  UNL1       -0.3410
      7 N         143.1378  140.1187  164.7481 N.ar    1  UNL1       -0.2128
      8 H         144.5935  138.5251  162.0110 H       1  UNL1        0.1438
      9 H         145.3635  139.4290  163.2348 H       1  UNL1        0.1438
     10 C         140.6521  143.7540  169.8755 C.3     1  UNL1        0.0015
     11 C         141.5786  142.8039  169.1762 C.3     1  UNL1        0.0176
     12 C         142.7856  141.9562  168.9035 C.3     1  UNL1        0.0228
     13 C         142.8628  141.1438  167.6450 C.3     1  UNL1        0.0922
     14 N         141.7329  141.1789  166.6591 N.pl3   1  UNL1       -0.2920
     15 C         140.5259  142.0266  166.9317 C.3     1  UNL1        0.0922
     16 C         140.4487  142.8391  168.1902 C.3     1  UNL1        0.0228
     17 C         142.3867  143.0987  170.4050 C.3     1  UNL1        0.0652
     18 N         142.1316  142.3360  171.6712 N.3     1  UNL1       -0.3211
     19 H         141.2003  142.5604  172.0215 H       1  UNL1        0.1189
     20 H         142.8288  142.5937  172.3697 H       1  UNL1        0.1189
     21 S         142.0417  137.9290  161.6250 S.3     1  UNL1       -0.0643
     22 C         141.8135  138.5833  160.2947 C.ar    1  UNL1        0.0458
     23 C         142.9746  139.1325  159.5199 C.ar    1  UNL1        0.0281
     24 C         142.7464  139.7868  158.1896 C.ar    1  UNL1        0.1009
     25 N         141.3571  139.8919  157.6340 N.ar    1  UNL1       -0.2287
     26 C         140.1960  139.3427  158.4086 C.ar    1  UNL1        0.1365
     27 N         138.8066  139.4479  157.8530 N.pl3   1  UNL1       -0.3419
     28 C         140.4242  138.6884  159.7390 C.ar    1  UNL1        0.0947
     29 CL        139.2630  138.1392  160.5137 Cl      1  UNL1       -0.0788
     30 H         138.6569  139.8773  156.9799 H       1  UNL1        0.1437
     31 H         138.0446  139.0874  158.3615 H       1  UNL1        0.1437
@<TRIPOS>BOND
     1    10    11    1
     2    11    17    1
     3    17    18    1
     4    11    12    1
     5    12    13    1
     6    13    14    1
     7    14     1    1
     8     1     2   ar
     9     2     3   ar
    10     3     4   ar
    11     4    21    1
    12    21    22    1
    13    22    23   ar
    14    23    24   ar
    15    24    25   ar
    16    25    26   ar
    17    26    27    1
    18    26    28   ar
    19    28    29    1
    20     4     5   ar
    21     5     6    1
    22     5     7   ar
    23    14    15    1
    24    15    16    1
    25    16    11    1
    26     7     1   ar
    27    28    22   ar
    28    18    19    1
    29    18    20    1
    30    27    30    1
    31    27    31    1
    32     6     8    1
    33     6     9    1
@<TRIPOS>MOLECULE
*****
 31 33 0 0 0
SMALL
GASTEIGER

@<TRIPOS>ATOM
      1 C         139.9142  142.2227  165.1021 C.ar    1  UNL1        0.1525
      2 C         140.9774  141.7429  164.1590 C.ar    1  UNL1        0.1337
      3 N         140.9039  142.0970  162.7032 N.ar    1  UNL1       -0.2316
      4 C         139.7674  142.9309  162.1906 C.ar    1  UNL1        0.1420
      5 C         138.7043  143.4106  163.1337 C.ar    1  UNL1        0.1508
      6 N         137.5676  144.2446  162.6211 N.pl3   1  UNL1       -0.3410
      7 N         138.7777  143.0565  164.5895 N.ar    1  UNL1       -0.2128
      8 H         137.5194  144.4770  161.6656 H       1  UNL1        0.1438
      9 H         136.8698  144.5594  163.2401 H       1  UNL1        0.1438
     10 C         139.8515  140.0083  170.3874 C.3     1  UNL1        0.0015
     11 C         140.1345  141.1603  169.4693 C.3     1  UNL1        0.0176
     12 C         140.5549  142.5240  169.0070 C.3     1  UNL1        0.0228
     13 C         140.4815  142.8781  167.5513 C.3     1  UNL1        0.0922
     14 N         139.9877  141.8686  166.5578 N.pl3   1  UNL1       -0.2920
     15 C         139.5673  140.5049  167.0201 C.3     1  UNL1        0.0922
     16 C         139.6407  140.1508  168.4759 C.3     1  UNL1        0.0228
     17 C         140.5300  141.7698  170.7817 C.3     1  UNL1        0.0652
     18 N         140.7873  140.8908  171.9696 N.3     1  UNL1       -0.3211
     19 H         139.9193  140.4335  172.2485 H       1  UNL1        0.1189
     20 H         141.1366  141.4574  172.7425 H       1  UNL1        0.1189
     21 S         139.6940  143.2850  160.7348 S.3     1  UNL1       -0.0643
     22 C         139.0020  142.3651  159.7732 C.ar    1  UNL1        0.0458
     23 C         138.3801  141.0928  160.2678 C.ar    1  UNL1        0.0281
     24 C         137.6881  140.1728  159.3062 C.ar    1  UNL1        0.1009
     25 N         137.6180  140.5251  157.8498 N.ar    1  UNL1       -0.2287
     26 C         138.2398  141.7973  157.3551 C.ar    1  UNL1        0.1365
     27 N         138.1696  142.1496  155.8988 N.pl3   1  UNL1       -0.3419
     28 C         138.9318  142.7173  158.3168 C.ar    1  UNL1        0.0947
     29 CL        139.5536  143.9896  157.8221 Cl      1  UNL1       -0.0788
     30 H         137.7154  141.5458  155.2676 H       1  UNL1        0.1437
     31 H         138.5777  142.9846  155.5741 H       1  UNL1        0.1437
@<TRIPOS>BOND
     1    10    11    1
     2    11    17    1
     3    17    18    1
     4    11    12    1
     5    12    13    1
     6    13    14    1
     7    14     1    1
     8     1     2   ar
     9     2     3   ar
    10     3     4   ar
    11     4    21    1
    12    21    22    1
    13    22    23   ar
    14    23    24   ar
    15    24    25   ar
    16    25    26   ar
    17    26    27    1
    18    26    28   ar
    19    28    29    1
    20     4     5   ar
    21     5     6    1
    22     5     7   ar
    23    14    15    1
    24    15    16    1
    25    16    11    1
    26     7     1   ar
    27    28    22   ar
    28    18    19    1
    29    18    20    1
    30    27    30    1
    31    27    31    1
    32     6     8    1
    33     6     9    1
@<TRIPOS>MOLECULE
*****
 31 33 0 0 0
SMALL
GASTEIGER

@<TRIPOS>ATOM
      1 C         139.8206  139.7915  165.7278 C.ar    1  UNL1        0.1525
      2 C         140.3806  138.7791  164.7731 C.ar    1  UNL1        0.1337
      3 N         139.7689  138.6113  163.4138 N.ar    1  UNL1       -0.2316
      4 C         138.5972  139.4560  163.0092 C.ar    1  UNL1        0.1420
      5 C         138.0373  140.4684  163.9639 C.ar    1  UNL1        0.1508
      6 N         136.8656  141.3131  163.5593 N.pl3   1  UNL1       -0.3410
      7 N         138.6490  140.6361  165.3232 N.ar    1  UNL1       -0.2128
      8 H         136.4641  141.2030  162.6672 H       1  UNL1        0.1438
      9 H         136.4980  141.9776  164.1859 H       1  UNL1        0.1438
     10 C         142.9744  140.1276  170.5009 C.3     1  UNL1        0.0015
     11 C         141.6557  140.2947  169.8057 C.3     1  UNL1        0.0176
     12 C         140.2047  140.6091  169.5923 C.3     1  UNL1        0.0228
     13 C         139.5930  140.4413  168.2330 C.3     1  UNL1        0.0922
     14 N         140.4323  139.9592  167.0871 N.pl3   1  UNL1       -0.2920
     15 C         141.8834  139.6449  167.3005 C.3     1  UNL1        0.0922
     16 C         142.4951  139.8126  168.6598 C.3     1  UNL1        0.0228
     17 C         141.2743  140.7188  171.1930 C.3     1  UNL1        0.0652
     18 N         141.8369  141.9830  171.7721 N.3     1  UNL1       -0.3211
     19 H         142.8443  141.8816  171.8955 H       1  UNL1        0.1189
     20 H         141.4005  142.1668  172.6756 H       1  UNL1        0.1189
     21 S         137.9855  139.2882  161.6499 S.3     1  UNL1       -0.0643
     22 C         138.8140  139.5187  160.4210 C.ar    1  UNL1        0.0458
     23 C         139.4911  138.3633  159.7453 C.ar    1  UNL1        0.0281
     24 C         140.3197  138.5938  158.5164 C.ar    1  UNL1        0.1009
     25 N         140.4712  139.9797  157.9630 N.ar    1  UNL1       -0.2287
     26 C         139.7941  141.1352  158.6387 C.ar    1  UNL1        0.1365
     27 N         139.9456  142.5211  158.0853 N.pl3   1  UNL1       -0.3419
     28 C         138.9655  140.9047  159.8677 C.ar    1  UNL1        0.0947
     29 CL        138.2885  142.0602  160.5433 Cl      1  UNL1       -0.0788
     30 H         140.4894  142.6724  157.2787 H       1  UNL1        0.1437
     31 H         139.5013  143.2795  158.5288 H       1  UNL1        0.1437
@<TRIPOS>BOND
     1    10    11    1
     2    11    17    1
     3    17    18    1
     4    11    12    1
     5    12    13    1
     6    13    14    1
     7    14     1    1
     8     1     2   ar
     9     2     3   ar
    10     3     4   ar
    11     4    21    1
    12    21    22    1
    13    22    23   ar
    14    23    24   ar
    15    24    25   ar
    16    25    26   ar
    17    26    27    1
    18    26    28   ar
    19    28    29    1
    20     4     5   ar
    21     5     6    1
    22     5     7   ar
    23    14    15    1
    24    15    16    1
    25    16    11    1
    26     7     1   ar
    27    28    22   ar
    28    18    19    1
    29    18    20    1
    30    27    30    1
    31    27    31    1
    32     6     8    1
    33     6     9    1
@<TRIPOS>MOLECULE
*****
 31 33 0 0 0
SMALL
GASTEIGER

@<TRIPOS>ATOM
      1 C         139.8627  140.6040  164.9194 C.ar    1  UNL1        0.1525
      2 C         140.2789  141.5263  163.8121 C.ar    1  UNL1        0.1337
      3 N         140.1320  141.0961  162.3826 N.ar    1  UNL1       -0.2316
      4 C         139.5688  139.7437  162.0605 C.ar    1  UNL1        0.1420
      5 C         139.1526  138.8215  163.1678 C.ar    1  UNL1        0.1508
      6 N         138.5894  137.4690  162.8457 N.pl3   1  UNL1       -0.3410
      7 N         139.2996  139.2516  164.5973 N.ar    1  UNL1       -0.2128
      8 H         138.4929  137.1867  161.9075 H       1  UNL1        0.1438
      9 H         138.3162  136.8637  163.5725 H       1  UNL1        0.1438
     10 C         140.6059  143.1238  170.0126 C.3     1  UNL1        0.0015
     11 C         140.3036  141.8945  169.2078 C.3     1  UNL1        0.0176
     12 C         139.9746  140.4673  168.8841 C.3     1  UNL1        0.0228
     13 C         139.8277  140.0372  167.4546 C.3     1  UNL1        0.0922
     14 N         140.0097  141.0342  166.3489 N.pl3   1  UNL1       -0.2920
     15 C         140.3387  142.4614  166.6726 C.3     1  UNL1        0.0922
     16 C         140.4857  142.8916  168.1020 C.3     1  UNL1        0.0228
     17 C         140.2265  141.3244  170.5931 C.3     1  UNL1        0.0652
     18 N         140.5334  142.1904  171.7787 N.3     1  UNL1       -0.3211
     19 H         141.5175  142.4579  171.7587 H       1  UNL1        0.1189
     20 H         140.3388  141.6740  172.6365 H       1  UNL1        0.1189
     21 S         139.4218  139.3136  160.6310 S.3     1  UNL1       -0.0643
     22 C         140.5987  138.7470  159.8935 C.ar    1  UNL1        0.0458
     23 C         141.7974  138.2618  160.6536 C.ar    1  UNL1        0.0281
     24 C         142.9743  137.6952  159.9161 C.ar    1  UNL1        0.1009
     25 N         142.9525  137.6137  158.4185 N.ar    1  UNL1       -0.2287
     26 C         141.7538  138.0988  157.6584 C.ar    1  UNL1        0.1365
     27 N         141.7320  138.0173  156.1608 N.pl3   1  UNL1       -0.3419
     28 C         140.5769  138.6655  158.3959 C.ar    1  UNL1        0.0947
     29 CL        139.3782  139.1505  157.6358 Cl      1  UNL1       -0.0788
     30 H         142.5044  137.6454  155.6767 H       1  UNL1        0.1437
     31 H         140.9452  138.3357  155.6619 H       1  UNL1        0.1437
@<TRIPOS>BOND
     1    10    11    1
     2    11    17    1
     3    17    18    1
     4    11    12    1
     5    12    13    1
     6    13    14    1
     7    14     1    1
     8     1     2   ar
     9     2     3   ar
    10     3     4   ar
    11     4    21    1
    12    21    22    1
    13    22    23   ar
    14    23    24   ar
    15    24    25   ar
    16    25    26   ar
    17    26    27    1
    18    26    28   ar
    19    28    29    1
    20     4     5   ar
    21     5     6    1
    22     5     7   ar
    23    14    15    1
    24    15    16    1
    25    16    11    1
    26     7     1   ar
    27    28    22   ar
    28    18    19    1
    29    18    20    1
    30    27    30    1
    31    27    31    1
    32     6     8    1
    33     6     9    1
@<TRIPOS>MOLECULE
*****
 31 33 0 0 0
SMALL
GASTEIGER

@<TRIPOS>ATOM
      1 C         140.1452  141.8066  165.8573 C.ar    1  UNL1        0.1525
      2 C         140.9190  142.8050  165.0484 C.ar    1  UNL1        0.1337
      3 N         140.3783  143.2867  163.7349 N.ar    1  UNL1       -0.2316
      4 C         139.0637  142.7700  163.2301 C.ar    1  UNL1        0.1420
      5 C         138.2898  141.7716  164.0390 C.ar    1  UNL1        0.1508
      6 N         136.9751  141.2549  163.5342 N.pl3   1  UNL1       -0.3410
      7 N         138.8306  141.2899  165.3525 N.ar    1  UNL1       -0.2128
      8 H         136.6202  141.5711  162.6721 H       1  UNL1        0.1438
      9 H         136.4672  140.5996  164.0651 H       1  UNL1        0.1438
     10 C         142.6806  139.3055  170.3471 C.3     1  UNL1        0.0015
     11 C         141.7675  140.3613  169.7980 C.3     1  UNL1        0.0176
     12 C         140.8250  141.5275  169.7573 C.3     1  UNL1        0.0228
     13 C         140.2842  142.0093  168.4437 C.3     1  UNL1        0.0922
     14 N         140.6859  141.3248  167.1709 N.pl3   1  UNL1       -0.2920
     15 C         141.6284  140.1586  167.2116 C.3     1  UNL1        0.0922
     16 C         142.1692  139.6769  168.5252 C.3     1  UNL1        0.0228
     17 C         141.6829  140.6791  171.2616 C.3     1  UNL1        0.0652
     18 N         142.2250  141.9783  171.7795 N.3     1  UNL1       -0.3211
     19 H         143.2377  141.9962  171.6592 H       1  UNL1        0.1189
     20 H         141.9986  142.0706  172.7698 H       1  UNL1        0.1189
     21 S         138.5229  143.2518  161.9165 S.3     1  UNL1       -0.0643
     22 C         139.4179  143.3140  160.7145 C.ar    1  UNL1        0.0458
     23 C         139.5445  142.1232  159.8111 C.ar    1  UNL1        0.0281
     24 C         140.4395  142.1855  158.6090 C.ar    1  UNL1        0.1009
     25 N         141.2080  143.4385  158.3103 N.ar    1  UNL1       -0.2287
     26 C         141.0816  144.6293  159.2136 C.ar    1  UNL1        0.1365
     27 N         141.8501  145.8823  158.9148 N.pl3   1  UNL1       -0.3419
     28 C         140.1865  144.5671  160.4157 C.ar    1  UNL1        0.0947
     29 CL        140.0600  145.7578  161.3190 Cl      1  UNL1       -0.0788
     30 H         142.4376  145.9232  158.1259 H       1  UNL1        0.1437
     31 H         141.7671  146.6639  159.5077 H       1  UNL1        0.1437
@<TRIPOS>BOND
     1    10    11    1
     2    11    17    1
     3    17    18    1
     4    11    12    1
     5    12    13    1
     6    13    14    1
     7    14     1    1
     8     1     2   ar
     9     2     3   ar
    10     3     4   ar
    11     4    21    1
    12    21    22    1
    13    22    23   ar
    14    23    24   ar
    15    24    25   ar
    16    25    26   ar
    17    26    27    1
    18    26    28   ar
    19    28    29    1
    20     4     5   ar
    21     5     6    1
    22     5     7   ar
    23    14    15    1
    24    15    16    1
    25    16    11    1
    26     7     1   ar
    27    28    22   ar
    28    18    19    1
    29    18    20    1
    30    27    30    1
    31    27    31    1
    32     6     8    1
    33     6     9    1
