@<TRIPOS>MOLECULE
*****
 36 39 0 0 0
SMALL
GASTEIGER

@<TRIPOS>ATOM
      1 S         139.0045  142.4043  164.6804 S.O2    1  UNL1        0.0736
      2 O         138.8412  141.0418  164.0747 O.2     1  UNL1       -0.1499
      3 O         139.1678  143.7668  165.2861 O.2     1  UNL1       -0.1499
      4 C         140.9215  140.5611  168.3104 C.ar    1  UNL1        0.0533
      5 C         141.4277  141.8685  167.7773 C.ar    1  UNL1        0.0161
      6 C         140.7887  142.4829  166.5673 C.ar    1  UNL1        0.0215
      7 C         139.6435  141.7898  165.8904 C.ar    1  UNL1        0.1253
      8 C         139.1374  140.4823  166.4235 C.ar    1  UNL1        0.0215
      9 C         139.7764  139.8680  167.6335 C.ar    1  UNL1        0.0161
     10 O         143.2693  138.7201  167.9954 O.2     1  UNL1       -0.2261
     11 C         142.7344  139.0262  169.3629 C.2     1  UNL1        0.4055
     12 N         141.5606  139.9466  169.5205 N.am    1  UNL1       -0.2499
     13 H         141.2095  140.1475  170.4181 H       1  UNL1        0.1582
     14 O         143.3734  138.4117  170.5730 O.3     1  UNL1       -0.4318
     15 C         143.6550  136.9388  170.6061 C.3     1  UNL1        0.2393
     16 C         144.7804  136.4090  171.4443 C.3     1  UNL1        0.1589
     17 C         144.8013  135.0918  172.1616 C.3     1  UNL1        0.0360
     18 C         146.1164  134.9722  172.8731 C.3     1  UNL1        0.0347
     19 C         146.9084  136.2155  172.5954 C.3     1  UNL1        0.1423
     20 O         146.0827  137.1035  171.7124 O.3     1  UNL1       -0.3524
     21 N         138.3655  143.0188  163.4704 N.pl3   1  UNL1       -0.2149
     22 H         137.6237  143.6573  163.5762 H       1  UNL1        0.1737
     23 C         138.8568  142.6604  162.0992 C.ar    1  UNL1        0.0679
     24 C         138.1061  141.6600  161.2712 C.ar    1  UNL1        0.0160
     25 C         138.5974  141.3016  159.9000 C.ar    1  UNL1        0.0013
     26 C         139.8394  141.9436  159.3568 C.ar    1  UNL1        0.0002
     27 C         140.5901  142.9441  160.1847 C.ar    1  UNL1        0.0045
     28 C         140.0989  143.3025  161.5559 C.ar    1  UNL1        0.0551
     29 C         140.8496  144.3029  162.3839 C.2     1  UNL1        0.2143
     30 O         140.4188  145.7397  162.3971 O.2     1  UNL1       -0.2849
     31 C         142.0311  143.8666  163.1985 C.ar    1  UNL1        0.1202
     32 C         142.8908  144.8893  163.8804 C.ar    1  UNL1        0.0224
     33 C         144.0723  144.4529  164.6951 C.ar    1  UNL1        0.0032
     34 C         144.3940  142.9938  164.8278 C.ar    1  UNL1        0.0207
     35 C         143.5343  141.9711  164.1459 C.ar    1  UNL1        0.0989
     36 N         142.3529  142.4075  163.3313 N.ar    1  UNL1       -0.2406
@<TRIPOS>BOND
     1    10    11    2
     2    11    12   am
     3    12     4    1
     4     4     5   ar
     5     5     6   ar
     6     6     7   ar
     7     7     1    1
     8     1     2    2
     9     1     3    2
    10     1    21    1
    11    21    23    1
    12    23    24   ar
    13    24    25   ar
    14    25    26   ar
    15    26    27   ar
    16    27    28   ar
    17    28    29    1
    18    29    30    2
    19    29    31    1
    20    31    32   ar
    21    32    33   ar
    22    33    34   ar
    23    34    35   ar
    24    35    36   ar
    25     7     8   ar
    26     8     9   ar
    27    11    14    1
    28    14    15    1
    29    15    16    1
    30    16    17    1
    31    17    18    1
    32    18    19    1
    33    19    20    1
    34     9     4   ar
    35    20    16    1
    36    28    23   ar
    37    36    31   ar
    38    12    13    1
    39    21    22    1
@<TRIPOS>MOLECULE
*****
 36 39 0 0 0
SMALL
GASTEIGER

@<TRIPOS>ATOM
      1 S         140.2681  142.6418  165.1445 S.O2    1  UNL1        0.0736
      2 O         140.4537  141.3313  164.4388 O.2     1  UNL1       -0.1499
      3 O         140.0825  143.9523  165.8502 O.2     1  UNL1       -0.1499
      4 C         141.1217  144.8298  161.3060 C.ar    1  UNL1        0.0533
      5 C         141.7665  143.5018  161.5716 C.ar    1  UNL1        0.0161
      6 C         141.4819  142.7725  162.8511 C.ar    1  UNL1        0.0215
      7 C         140.5526  143.3712  163.8650 C.ar    1  UNL1        0.1253
      8 C         139.9079  144.6992  163.5994 C.ar    1  UNL1        0.0215
      9 C         140.1924  145.4285  162.3199 C.ar    1  UNL1        0.0161
     10 O         139.4683  144.2769  158.8646 O.2     1  UNL1       -0.2261
     11 C         140.5796  145.2827  158.8058 C.2     1  UNL1        0.4055
     12 N         141.4063  145.5592  160.0265 N.am    1  UNL1       -0.2499
     13 H         142.1356  146.2193  159.9879 H       1  UNL1        0.1582
     14 O         140.8641  146.0121  157.5263 O.3     1  UNL1       -0.4318
     15 C         139.7838  146.1724  156.4982 C.3     1  UNL1        0.2393
     16 C         139.5495  147.5087  155.8586 C.3     1  UNL1        0.1589
     17 C         138.6550  148.5926  156.3831 C.3     1  UNL1        0.0360
     18 C         138.7212  149.7497  155.4308 C.3     1  UNL1        0.0347
     19 C         139.6567  149.3809  154.3177 C.3     1  UNL1        0.1423
     20 O         140.1685  147.9959  154.5821 O.3     1  UNL1       -0.3524
     21 N         139.9836  141.9125  166.4240 N.pl3   1  UNL1       -0.2149
     22 H         139.2452  141.2627  166.4665 H       1  UNL1        0.1737
     23 C         140.8240  142.1733  167.6388 C.ar    1  UNL1        0.0679
     24 C         140.3466  143.1315  168.6895 C.ar    1  UNL1        0.0160
     25 C         141.1871  143.3922  169.9042 C.ar    1  UNL1        0.0013
     26 C         142.5049  142.6948  170.0683 C.ar    1  UNL1        0.0002
     27 C         142.9823  141.7365  169.0176 C.ar    1  UNL1        0.0045
     28 C         142.1418  141.4758  167.8029 C.ar    1  UNL1        0.0551
     29 C         142.6192  140.5176  166.7522 C.2     1  UNL1        0.2143
     30 O         142.1553  139.0912  166.7715 O.2     1  UNL1       -0.2849
     31 C         143.5604  140.9857  165.6822 C.ar    1  UNL1        0.1202
     32 C         144.1519  139.9992  164.7195 C.ar    1  UNL1        0.0224
     33 C         145.0932  140.4674  163.6494 C.ar    1  UNL1        0.0032
     34 C         145.4429  141.9221  163.5422 C.ar    1  UNL1        0.0207
     35 C         144.8514  142.9086  164.5050 C.ar    1  UNL1        0.0989
     36 N         143.9102  142.4405  165.5750 N.ar    1  UNL1       -0.2406
@<TRIPOS>BOND
     1    10    11    2
     2    11    12   am
     3    12     4    1
     4     4     5   ar
     5     5     6   ar
     6     6     7   ar
     7     7     1    1
     8     1     2    2
     9     1     3    2
    10     1    21    1
    11    21    23    1
    12    23    24   ar
    13    24    25   ar
    14    25    26   ar
    15    26    27   ar
    16    27    28   ar
    17    28    29    1
    18    29    30    2
    19    29    31    1
    20    31    32   ar
    21    32    33   ar
    22    33    34   ar
    23    34    35   ar
    24    35    36   ar
    25     7     8   ar
    26     8     9   ar
    27    11    14    1
    28    14    15    1
    29    15    16    1
    30    16    17    1
    31    17    18    1
    32    18    19    1
    33    19    20    1
    34     9     4   ar
    35    20    16    1
    36    28    23   ar
    37    36    31   ar
    38    12    13    1
    39    21    22    1
@<TRIPOS>MOLECULE
*****
 36 39 0 0 0
SMALL
GASTEIGER

@<TRIPOS>ATOM
      1 S         139.7594  139.2193  162.4180 S.O2    1  UNL1        0.0736
      2 O         138.3609  139.2327  161.8758 O.2     1  UNL1       -0.1499
      3 O         141.1579  139.2059  162.9602 O.2     1  UNL1       -0.1499
      4 C         138.1351  138.8518  166.5985 C.ar    1  UNL1        0.0533
      5 C         138.1213  140.1805  165.9027 C.ar    1  UNL1        0.0161
      6 C         138.6627  140.3030  164.5092 C.ar    1  UNL1        0.0215
      7 C         139.2180  139.0968  163.8116 C.ar    1  UNL1        0.1253
      8 C         139.2318  137.7681  164.5075 C.ar    1  UNL1        0.0215
      9 C         138.6904  137.6456  165.9009 C.ar    1  UNL1        0.0161
     10 O         139.4517  140.3274  168.8545 O.2     1  UNL1       -0.2261
     11 C         138.2520  139.4671  169.1200 C.2     1  UNL1        0.4055
     12 N         137.5937  138.7293  167.9921 N.am    1  UNL1       -0.2499
     13 H         136.8063  138.1646  168.1664 H       1  UNL1        0.1582
     14 O         137.7106  139.3446  170.5136 O.3     1  UNL1       -0.4318
     15 C         136.3516  138.7516  170.7408 C.3     1  UNL1        0.2393
     16 C         136.1322  137.7906  171.8713 C.3     1  UNL1        0.1589
     17 C         135.1830  137.9794  173.0174 C.3     1  UNL1        0.0360
     18 C         135.2876  136.7775  173.9087 C.3     1  UNL1        0.0347
     19 C         136.3014  135.8459  173.3135 C.3     1  UNL1        0.1423
     20 O         136.8234  136.4720  172.0544 O.3     1  UNL1       -0.3524
     21 N         140.3008  139.3418  161.0246 N.pl3   1  UNL1       -0.2149
     22 H         141.0810  138.8074  160.7509 H       1  UNL1        0.1737
     23 C         139.6536  140.2786  160.0481 C.ar    1  UNL1        0.0679
     24 C         138.8495  139.7329  158.9055 C.ar    1  UNL1        0.0160
     25 C         138.2022  140.6697  157.9290 C.ar    1  UNL1        0.0013
     26 C         138.3591  142.1522  158.0951 C.ar    1  UNL1        0.0002
     27 C         139.1632  142.6979  159.2378 C.ar    1  UNL1        0.0045
     28 C         139.8105  141.7611  160.2143 C.ar    1  UNL1        0.0551
     29 C         140.6146  142.3068  161.3569 C.2     1  UNL1        0.2143
     30 O         142.1056  142.1431  161.3704 O.2     1  UNL1       -0.2849
     31 C         139.9278  143.0163  162.4860 C.ar    1  UNL1        0.1202
     32 C         140.6821  143.3303  163.7439 C.ar    1  UNL1        0.0224
     33 C         139.9951  144.0398  164.8730 C.ar    1  UNL1        0.0032
     34 C         138.5540  144.4352  164.7442 C.ar    1  UNL1        0.0207
     35 C         137.7997  144.1212  163.4862 C.ar    1  UNL1        0.0989
     36 N         138.4865  143.4117  162.3571 N.ar    1  UNL1       -0.2406
@<TRIPOS>BOND
     1    10    11    2
     2    11    12   am
     3    12     4    1
     4     4     5   ar
     5     5     6   ar
     6     6     7   ar
     7     7     1    1
     8     1     2    2
     9     1     3    2
    10     1    21    1
    11    21    23    1
    12    23    24   ar
    13    24    25   ar
    14    25    26   ar
    15    26    27   ar
    16    27    28   ar
    17    28    29    1
    18    29    30    2
    19    29    31    1
    20    31    32   ar
    21    32    33   ar
    22    33    34   ar
    23    34    35   ar
    24    35    36   ar
    25     7     8   ar
    26     8     9   ar
    27    11    14    1
    28    14    15    1
    29    15    16    1
    30    16    17    1
    31    17    18    1
    32    18    19    1
    33    19    20    1
    34     9     4   ar
    35    20    16    1
    36    28    23   ar
    37    36    31   ar
    38    12    13    1
    39    21    22    1
@<TRIPOS>MOLECULE
*****
 36 39 0 0 0
SMALL
GASTEIGER

@<TRIPOS>ATOM
      1 S         139.2133  142.4488  161.5610 S.O2    1  UNL1        0.0736
      2 O         140.0211  141.6333  160.5955 O.2     1  UNL1       -0.1499
      3 O         138.4056  143.2644  162.5265 O.2     1  UNL1       -0.1499
      4 C         140.8941  140.0608  164.9847 C.ar    1  UNL1        0.0533
      5 C         139.5613  140.7348  165.1234 C.ar    1  UNL1        0.0161
      6 C         139.0011  141.5308  163.9822 C.ar    1  UNL1        0.0215
      7 C         139.7736  141.6528  162.7023 C.ar    1  UNL1        0.1253
      8 C         141.1064  140.9788  162.5635 C.ar    1  UNL1        0.0215
      9 C         141.6667  140.1827  163.7048 C.ar    1  UNL1        0.0161
     10 O         142.9681  141.2716  166.7827 O.2     1  UNL1       -0.2261
     11 C         142.4914  139.8701  167.0250 C.2     1  UNL1        0.4055
     12 N         141.4544  139.2647  166.1260 N.am    1  UNL1       -0.2499
     13 H         141.1416  138.3449  166.2850 H       1  UNL1        0.1582
     14 O         143.0517  139.0740  168.1662 O.3     1  UNL1       -0.4318
     15 C         142.5269  139.2835  169.5557 C.3     1  UNL1        0.2393
     16 C         141.2861  140.0974  169.7740 C.3     1  UNL1        0.1589
     17 C         141.2378  141.5580  170.1121 C.3     1  UNL1        0.0360
     18 C         139.7975  141.9570  170.2396 C.3     1  UNL1        0.0347
     19 C         138.9556  140.7429  169.9802 C.3     1  UNL1        0.1423
     20 O         139.8756  139.5937  169.6924 O.3     1  UNL1       -0.3524
     21 N         138.6530  143.2449  160.4198 N.pl3   1  UNL1       -0.2149
     22 H         137.6846  143.4139  160.3662 H       1  UNL1        0.1737
     23 C         139.5682  143.7834  159.3603 C.ar    1  UNL1        0.0679
     24 C         139.4295  143.3168  157.9416 C.ar    1  UNL1        0.0160
     25 C         140.3446  143.8553  156.8821 C.ar    1  UNL1        0.0013
     26 C         141.3984  144.8605  157.2413 C.ar    1  UNL1        0.0002
     27 C         141.5371  145.3272  158.6602 C.ar    1  UNL1        0.0045
     28 C         140.6220  144.7886  159.7197 C.ar    1  UNL1        0.0551
     29 C         140.7606  145.2553  161.1384 C.2     1  UNL1        0.2143
     30 O         139.8114  146.2788  161.6875 O.2     1  UNL1       -0.2849
     31 C         141.8485  144.6984  162.0082 C.ar    1  UNL1        0.1202
     32 C         141.6985  144.7160  163.5005 C.ar    1  UNL1        0.0224
     33 C         142.7864  144.1591  164.3703 C.ar    1  UNL1        0.0032
     34 C         144.0242  143.5847  163.7476 C.ar    1  UNL1        0.0207
     35 C         144.1742  143.5671  162.2552 C.ar    1  UNL1        0.0989
     36 N         143.0864  144.1240  161.3855 N.ar    1  UNL1       -0.2406
@<TRIPOS>BOND
     1    10    11    2
     2    11    12   am
     3    12     4    1
     4     4     5   ar
     5     5     6   ar
     6     6     7   ar
     7     7     1    1
     8     1     2    2
     9     1     3    2
    10     1    21    1
    11    21    23    1
    12    23    24   ar
    13    24    25   ar
    14    25    26   ar
    15    26    27   ar
    16    27    28   ar
    17    28    29    1
    18    29    30    2
    19    29    31    1
    20    31    32   ar
    21    32    33   ar
    22    33    34   ar
    23    34    35   ar
    24    35    36   ar
    25     7     8   ar
    26     8     9   ar
    27    11    14    1
    28    14    15    1
    29    15    16    1
    30    16    17    1
    31    17    18    1
    32    18    19    1
    33    19    20    1
    34     9     4   ar
    35    20    16    1
    36    28    23   ar
    37    36    31   ar
    38    12    13    1
    39    21    22    1
@<TRIPOS>MOLECULE
*****
 36 39 0 0 0
SMALL
GASTEIGER

@<TRIPOS>ATOM
      1 S         141.3536  143.1093  163.4985 S.O2    1  UNL1        0.0736
      2 O         140.8405  141.7479  163.1334 O.2     1  UNL1       -0.1499
      3 O         141.8666  144.4707  163.8637 O.2     1  UNL1       -0.1499
      4 C         140.4180  144.5753  159.3482 C.ar    1  UNL1        0.0533
      5 C         140.3963  145.5313  160.5039 C.ar    1  UNL1        0.0161
      6 C         140.7082  145.0426  161.8873 C.ar    1  UNL1        0.0215
      7 C         141.0417  143.5980  162.1150 C.ar    1  UNL1        0.1253
      8 C         141.0634  142.6420  160.9593 C.ar    1  UNL1        0.0215
      9 C         140.7515  143.1307  159.5759 C.ar    1  UNL1        0.0161
     10 O         142.4986  146.0592  157.7768 O.2     1  UNL1       -0.2261
     11 C         141.1464  145.8059  157.1790 C.2     1  UNL1        0.4055
     12 N         140.1061  145.0640  157.9647 N.am    1  UNL1       -0.2499
     13 H         139.2186  144.8978  157.5723 H       1  UNL1        0.1582
     14 O         140.8345  146.2946  155.7955 O.3     1  UNL1       -0.4318
     15 C         139.4598  146.7987  155.4703 C.3     1  UNL1        0.2393
     16 C         139.1657  148.2682  155.5322 C.3     1  UNL1        0.1589
     17 C         139.5032  149.2801  154.4775 C.3     1  UNL1        0.0360
     18 C         139.0287  150.6212  154.9531 C.3     1  UNL1        0.0347
     19 C         138.3979  150.4382  156.3017 C.3     1  UNL1        0.1423
     20 O         138.4826  148.9840  156.6595 O.3     1  UNL1       -0.3524
     21 N         141.6654  142.6207  164.8820 N.pl3   1  UNL1       -0.2149
     22 H         141.4058  143.1590  165.6643 H       1  UNL1        0.1737
     23 C         142.3729  141.3120  165.0735 C.ar    1  UNL1        0.0679
     24 C         143.7427  141.1086  164.4971 C.ar    1  UNL1        0.0160
     25 C         144.4502  139.7998  164.6886 C.ar    1  UNL1        0.0013
     26 C         143.7879  138.6945  165.4564 C.ar    1  UNL1        0.0002
     27 C         142.4181  138.8979  166.0328 C.ar    1  UNL1        0.0045
     28 C         141.7106  140.2067  165.8413 C.ar    1  UNL1        0.0551
     29 C         140.3408  140.4101  166.4177 C.2     1  UNL1        0.2143
     30 O         139.1348  139.9070  165.6811 O.2     1  UNL1       -0.2849
     31 C         140.1769  141.1166  167.7307 C.ar    1  UNL1        0.1202
     32 C         139.5802  140.3940  168.9019 C.ar    1  UNL1        0.0224
     33 C         139.4164  141.1006  170.2149 C.ar    1  UNL1        0.0032
     34 C         139.8492  142.5297  170.3566 C.ar    1  UNL1        0.0207
     35 C         140.4458  143.2523  169.1854 C.ar    1  UNL1        0.0989
     36 N         140.6097  142.5458  167.8724 N.ar    1  UNL1       -0.2406
@<TRIPOS>BOND
     1    10    11    2
     2    11    12   am
     3    12     4    1
     4     4     5   ar
     5     5     6   ar
     6     6     7   ar
     7     7     1    1
     8     1     2    2
     9     1     3    2
    10     1    21    1
    11    21    23    1
    12    23    24   ar
    13    24    25   ar
    14    25    26   ar
    15    26    27   ar
    16    27    28   ar
    17    28    29    1
    18    29    30    2
    19    29    31    1
    20    31    32   ar
    21    32    33   ar
    22    33    34   ar
    23    34    35   ar
    24    35    36   ar
    25     7     8   ar
    26     8     9   ar
    27    11    14    1
    28    14    15    1
    29    15    16    1
    30    16    17    1
    31    17    18    1
    32    18    19    1
    33    19    20    1
    34     9     4   ar
    35    20    16    1
    36    28    23   ar
    37    36    31   ar
    38    12    13    1
    39    21    22    1
@<TRIPOS>MOLECULE
*****
 36 39 0 0 0
SMALL
GASTEIGER

@<TRIPOS>ATOM
      1 S         140.0274  139.6021  165.6814 S.O2    1  UNL1        0.0736
      2 O         138.7354  139.7836  166.4214 O.2     1  UNL1       -0.1499
      3 O         141.3194  139.4207  164.9413 O.2     1  UNL1       -0.1499
      4 C         137.7969  139.6573  161.7734 C.ar    1  UNL1        0.0533
      5 C         137.9044  140.9087  162.5934 C.ar    1  UNL1        0.0161
      6 C         138.6479  140.8903  163.8960 C.ar    1  UNL1        0.0215
      7 C         139.2839  139.6205  164.3787 C.ar    1  UNL1        0.1253
      8 C         139.1764  138.3691  163.5587 C.ar    1  UNL1        0.0215
      9 C         138.4329  138.3875  162.2561 C.ar    1  UNL1        0.0161
     10 O         139.1256  140.7204  159.3027 O.2     1  UNL1       -0.2261
     11 C         137.7178  140.2072  159.2354 C.2     1  UNL1        0.4055
     12 N         137.0534  139.6757  160.4707 N.am    1  UNL1       -0.2499
     13 H         136.1294  139.3388  160.4266 H       1  UNL1        0.1582
     14 O         136.9742  140.2255  157.9327 O.3     1  UNL1       -0.4318
     15 C         136.9852  141.4597  157.0803 C.3     1  UNL1        0.2393
     16 C         136.3319  141.4444  155.7301 C.3     1  UNL1        0.1589
     17 C         134.8934  141.1241  155.4503 C.3     1  UNL1        0.0360
     18 C         134.6748  141.2284  153.9700 C.3     1  UNL1        0.0347
     19 C         135.9782  141.6131  153.3349 C.3     1  UNL1        0.1423
     20 O         137.0023  141.7466  154.4228 O.3     1  UNL1       -0.3524
     21 N         140.7709  139.5838  166.9839 N.pl3   1  UNL1       -0.2149
     22 H         141.4484  138.8901  167.1543 H       1  UNL1        0.1737
     23 C         140.4823  140.6224  168.0270 C.ar    1  UNL1        0.0679
     24 C         139.7691  140.2392  169.2897 C.ar    1  UNL1        0.0160
     25 C         139.4805  141.2779  170.3328 C.ar    1  UNL1        0.0013
     26 C         139.9050  142.6996  170.1131 C.ar    1  UNL1        0.0002
     27 C         140.6182  143.0828  168.8503 C.ar    1  UNL1        0.0045
     28 C         140.9069  142.0442  167.8073 C.ar    1  UNL1        0.0551
     29 C         141.6200  142.4274  166.5445 C.2     1  UNL1        0.2143
     30 O         143.0199  141.9480  166.2988 O.2     1  UNL1       -0.2849
     31 C         140.9333  143.2900  165.5276 C.ar    1  UNL1        0.1202
     32 C         141.6540  143.6908  164.2746 C.ar    1  UNL1        0.0224
     33 C         140.9672  144.5534  163.2576 C.ar    1  UNL1        0.0032
     34 C         139.5597  145.0152  163.4936 C.ar    1  UNL1        0.0207
     35 C         138.8390  144.6145  164.7466 C.ar    1  UNL1        0.0989
     36 N         139.5258  143.7519  165.7636 N.ar    1  UNL1       -0.2406
@<TRIPOS>BOND
     1    10    11    2
     2    11    12   am
     3    12     4    1
     4     4     5   ar
     5     5     6   ar
     6     6     7   ar
     7     7     1    1
     8     1     2    2
     9     1     3    2
    10     1    21    1
    11    21    23    1
    12    23    24   ar
    13    24    25   ar
    14    25    26   ar
    15    26    27   ar
    16    27    28   ar
    17    28    29    1
    18    29    30    2
    19    29    31    1
    20    31    32   ar
    21    32    33   ar
    22    33    34   ar
    23    34    35   ar
    24    35    36   ar
    25     7     8   ar
    26     8     9   ar
    27    11    14    1
    28    14    15    1
    29    15    16    1
    30    16    17    1
    31    17    18    1
    32    18    19    1
    33    19    20    1
    34     9     4   ar
    35    20    16    1
    36    28    23   ar
    37    36    31   ar
    38    12    13    1
    39    21    22    1
@<TRIPOS>MOLECULE
*****
 36 39 0 0 0
SMALL
GASTEIGER

@<TRIPOS>ATOM
      1 S         140.5568  144.6124  160.1791 S.O2    1  UNL1        0.0736
      2 O         141.3413  143.3669  160.4675 O.2     1  UNL1       -0.1499
      3 O         139.7723  145.8579  159.8906 O.2     1  UNL1       -0.1499
      4 C         138.8754  142.6950  156.4714 C.ar    1  UNL1        0.0533
      5 C         139.7408  143.9150  156.3584 C.ar    1  UNL1        0.0161
      6 C         140.3012  144.5541  157.5942 C.ar    1  UNL1        0.0215
      7 C         139.9963  143.9732  158.9432 C.ar    1  UNL1        0.1253
      8 C         139.1310  142.7532  159.0562 C.ar    1  UNL1        0.0215
      9 C         138.5705  142.1141  157.8204 C.ar    1  UNL1        0.0161
     10 O         136.2061  143.5629  155.4125 O.2     1  UNL1       -0.2261
     11 C         136.9803  142.4898  154.7061 C.2     1  UNL1        0.4055
     12 N         138.3149  142.0558  155.2355 N.am    1  UNL1       -0.2499
     13 H         138.8231  141.3515  154.7719 H       1  UNL1        0.1582
     14 O         136.4198  141.8506  153.4702 O.3     1  UNL1       -0.4318
     15 C         135.6445  140.5707  153.5734 C.3     1  UNL1        0.2393
     16 C         134.6495  140.3838  154.6802 C.3     1  UNL1        0.1589
     17 C         133.4013  141.1891  154.8890 C.3     1  UNL1        0.0360
     18 C         132.7084  140.6617  156.1104 C.3     1  UNL1        0.0347
     19 C         133.5284  139.5305  156.6564 C.3     1  UNL1        0.1423
     20 O         134.7280  139.3588  155.7725 O.3     1  UNL1       -0.3524
     21 N         141.1172  145.2515  161.4149 N.pl3   1  UNL1       -0.2149
     22 H         141.7918  145.9645  161.3377 H       1  UNL1        0.1737
     23 C         140.6500  144.8045  162.7683 C.ar    1  UNL1        0.0679
     24 C         139.2364  145.0645  163.1975 C.ar    1  UNL1        0.0160
     25 C         138.7692  144.6175  164.5509 C.ar    1  UNL1        0.0013
     26 C         139.7155  143.9103  165.4752 C.ar    1  UNL1        0.0002
     27 C         141.1291  143.6502  165.0461 C.ar    1  UNL1        0.0045
     28 C         141.5964  144.0973  163.6927 C.ar    1  UNL1        0.0551
     29 C         143.0099  143.8373  163.2636 C.2     1  UNL1        0.2143
     30 O         143.8394  144.9521  162.6986 O.2     1  UNL1       -0.2849
     31 C         143.5941  142.4624  163.3995 C.ar    1  UNL1        0.1202
     32 C         144.9867  142.2881  163.9289 C.ar    1  UNL1        0.0224
     33 C         145.5708  140.9132  164.0648 C.ar    1  UNL1        0.0032
     34 C         144.7623  139.7126  163.6713 C.ar    1  UNL1        0.0207
     35 C         143.3696  139.8868  163.1420 C.ar    1  UNL1        0.0989
     36 N         142.7855  141.2617  163.0061 N.ar    1  UNL1       -0.2406
@<TRIPOS>BOND
     1    10    11    2
     2    11    12   am
     3    12     4    1
     4     4     5   ar
     5     5     6   ar
     6     6     7   ar
     7     7     1    1
     8     1     2    2
     9     1     3    2
    10     1    21    1
    11    21    23    1
    12    23    24   ar
    13    24    25   ar
    14    25    26   ar
    15    26    27   ar
    16    27    28   ar
    17    28    29    1
    18    29    30    2
    19    29    31    1
    20    31    32   ar
    21    32    33   ar
    22    33    34   ar
    23    34    35   ar
    24    35    36   ar
    25     7     8   ar
    26     8     9   ar
    27    11    14    1
    28    14    15    1
    29    15    16    1
    30    16    17    1
    31    17    18    1
    32    18    19    1
    33    19    20    1
    34     9     4   ar
    35    20    16    1
    36    28    23   ar
    37    36    31   ar
    38    12    13    1
    39    21    22    1
@<TRIPOS>MOLECULE
*****
 36 39 0 0 0
SMALL
GASTEIGER

@<TRIPOS>ATOM
      1 S         143.3965  140.5968  164.8512 S.O2    1  UNL1        0.0736
      2 O         144.0518  139.3209  165.2899 O.2     1  UNL1       -0.1499
      3 O         142.7413  141.8728  164.4125 O.2     1  UNL1       -0.1499
      4 C         140.6778  140.4324  168.4333 C.ar    1  UNL1        0.0533
      5 C         140.3777  141.3762  167.3067 C.ar    1  UNL1        0.0161
      6 C         141.2840  141.4309  166.1127 C.ar    1  UNL1        0.0215
      7 C         142.4903  140.5420  166.0453 C.ar    1  UNL1        0.1253
      8 C         142.7904  139.5983  167.1719 C.ar    1  UNL1        0.0215
      9 C         141.8841  139.5435  168.3659 C.ar    1  UNL1        0.0161
     10 O         138.0663  138.9651  168.2684 O.2     1  UNL1       -0.2261
     11 C         138.4658  139.6440  169.5449 C.2     1  UNL1        0.4055
     12 N         139.7715  140.3776  169.6274 N.am    1  UNL1       -0.2499
     13 H         140.0337  140.8231  170.4652 H       1  UNL1        0.1582
     14 O         137.5596  139.5891  170.7390 O.3     1  UNL1       -0.4318
     15 C         136.3426  138.7126  170.7172 C.3     1  UNL1        0.2393
     16 C         136.0028  137.8713  171.9117 C.3     1  UNL1        0.1589
     17 C         136.7276  136.6348  172.3542 C.3     1  UNL1        0.0360
     18 C         136.0514  136.1181  173.5894 C.3     1  UNL1        0.0347
     19 C         134.9087  137.0353  173.9103 C.3     1  UNL1        0.1423
     20 O         134.8787  138.1188  172.8735 O.3     1  UNL1       -0.3524
     21 N         144.3027  140.6517  163.6572 N.pl3   1  UNL1       -0.2149
     22 H         145.1572  141.1379  163.7096 H       1  UNL1        0.1737
     23 C         143.9071  139.9657  162.3832 C.ar    1  UNL1        0.0679
     24 C         143.8489  138.4680  162.3247 C.ar    1  UNL1        0.0160
     25 C         143.4533  137.7821  161.0507 C.ar    1  UNL1        0.0013
     26 C         143.1159  138.5938  159.8353 C.ar    1  UNL1        0.0002
     27 C         143.1741  140.0916  159.8938 C.ar    1  UNL1        0.0045
     28 C         143.5698  140.7775  161.1678 C.ar    1  UNL1        0.0551
     29 C         143.6280  142.2752  161.2263 C.2     1  UNL1        0.2143
     30 O         144.9039  142.9616  161.6150 O.2     1  UNL1       -0.2849
     31 C         142.4104  143.0866  160.8962 C.ar    1  UNL1        0.1202
     32 C         141.0760  142.7011  161.4627 C.ar    1  UNL1        0.0224
     33 C         139.8583  143.5126  161.1325 C.ar    1  UNL1        0.0032
     34 C         139.9751  144.7094  160.2359 C.ar    1  UNL1        0.0207
     35 C         141.3094  145.0948  159.6694 C.ar    1  UNL1        0.0989
     36 N         142.5271  144.2835  159.9996 N.ar    1  UNL1       -0.2406
@<TRIPOS>BOND
     1    10    11    2
     2    11    12   am
     3    12     4    1
     4     4     5   ar
     5     5     6   ar
     6     6     7   ar
     7     7     1    1
     8     1     2    2
     9     1     3    2
    10     1    21    1
    11    21    23    1
    12    23    24   ar
    13    24    25   ar
    14    25    26   ar
    15    26    27   ar
    16    27    28   ar
    17    28    29    1
    18    29    30    2
    19    29    31    1
    20    31    32   ar
    21    32    33   ar
    22    33    34   ar
    23    34    35   ar
    24    35    36   ar
    25     7     8   ar
    26     8     9   ar
    27    11    14    1
    28    14    15    1
    29    15    16    1
    30    16    17    1
    31    17    18    1
    32    18    19    1
    33    19    20    1
    34     9     4   ar
    35    20    16    1
    36    28    23   ar
    37    36    31   ar
    38    12    13    1
    39    21    22    1
@<TRIPOS>MOLECULE
*****
 36 39 0 0 0
SMALL
GASTEIGER

@<TRIPOS>ATOM
      1 S         139.8702  141.7002  163.3199 S.O2    1  UNL1        0.0736
      2 O         138.7581  142.7012  163.4253 O.2     1  UNL1       -0.1499
      3 O         140.9823  140.6992  163.2146 O.2     1  UNL1       -0.1499
      4 C         138.3600  140.4483  159.2700 C.ar    1  UNL1        0.0533
      5 C         139.6742  141.1608  159.3930 C.ar    1  UNL1        0.0161
      6 C         140.1776  141.5781  160.7430 C.ar    1  UNL1        0.0215
      7 C         139.3668  141.2829  161.9699 C.ar    1  UNL1        0.1253
      8 C         138.0525  140.5704  161.8470 C.ar    1  UNL1        0.0215
      9 C         137.5491  140.1531  160.4970 C.ar    1  UNL1        0.0161
     10 O         137.2629  142.5014  157.3776 O.2     1  UNL1       -0.2261
     11 C         137.3080  141.0575  156.9739 C.2     1  UNL1        0.4055
     12 N         137.8565  140.0309  157.9200 N.am    1  UNL1       -0.2499
     13 H         137.8861  139.0832  157.6550 H       1  UNL1        0.1582
     14 O         136.8045  140.6402  155.6239 O.3     1  UNL1       -0.4318
     15 C         135.4205  141.0212  155.1889 C.3     1  UNL1        0.2393
     16 C         134.2305  140.5292  155.9581 C.3     1  UNL1        0.1589
     17 C         132.8056  140.9429  155.7376 C.3     1  UNL1        0.0360
     18 C         131.9509  140.2065  156.7261 C.3     1  UNL1        0.0347
     19 C         132.8475  139.3376  157.5574 C.3     1  UNL1        0.1423
     20 O         134.2564  139.5371  157.0828 O.3     1  UNL1       -0.3524
     21 N         140.3737  142.1175  164.6699 N.pl3   1  UNL1       -0.2149
     22 H         139.8242  141.9580  165.4710 H       1  UNL1        0.1737
     23 C         141.7144  142.7777  164.7991 C.ar    1  UNL1        0.0679
     24 C         142.0626  143.9458  163.9248 C.ar    1  UNL1        0.0160
     25 C         143.4032  144.6060  164.0541 C.ar    1  UNL1        0.0013
     26 C         144.3957  144.0982  165.0577 C.ar    1  UNL1        0.0002
     27 C         144.0475  142.9301  165.9320 C.ar    1  UNL1        0.0045
     28 C         142.7068  142.2699  165.8027 C.ar    1  UNL1        0.0551
     29 C         142.3586  141.1019  166.6770 C.2     1  UNL1        0.2143
     30 O         142.9520  139.7528  166.3979 O.2     1  UNL1       -0.2849
     31 C         141.4170  141.2829  167.8305 C.ar    1  UNL1        0.1202
     32 C         141.2788  142.6269  168.4820 C.ar    1  UNL1        0.0224
     33 C         140.3371  142.8079  169.6356 C.ar    1  UNL1        0.0032
     34 C         139.5337  141.6449  170.1375 C.ar    1  UNL1        0.0207
     35 C         139.6719  140.3009  169.4859 C.ar    1  UNL1        0.0989
     36 N         140.6135  140.1199  168.3325 N.ar    1  UNL1       -0.2406
@<TRIPOS>BOND
     1    10    11    2
     2    11    12   am
     3    12     4    1
     4     4     5   ar
     5     5     6   ar
     6     6     7   ar
     7     7     1    1
     8     1     2    2
     9     1     3    2
    10     1    21    1
    11    21    23    1
    12    23    24   ar
    13    24    25   ar
    14    25    26   ar
    15    26    27   ar
    16    27    28   ar
    17    28    29    1
    18    29    30    2
    19    29    31    1
    20    31    32   ar
    21    32    33   ar
    22    33    34   ar
    23    34    35   ar
    24    35    36   ar
    25     7     8   ar
    26     8     9   ar
    27    11    14    1
    28    14    15    1
    29    15    16    1
    30    16    17    1
    31    17    18    1
    32    18    19    1
    33    19    20    1
    34     9     4   ar
    35    20    16    1
    36    28    23   ar
    37    36    31   ar
    38    12    13    1
    39    21    22    1
