@<TRIPOS>MOLECULE
*****
 32 36 0 0 0
SMALL
GASTEIGER

@<TRIPOS>ATOM
      1 C         140.7161  143.9868  160.6271 C.2     1  UNL1        0.3094
      2 N         140.5737  145.4776  160.5423 N.2     1  UNL1       -0.0400
      3 C         139.8018  146.2182  161.5937 C.2     1  UNL1        0.2366
      4 C         139.1722  145.4681  162.7299 C.2     1  UNL1        0.0661
      5 C         139.3146  143.9773  162.8147 C.2     1  UNL1        0.0782
      6 N         138.8086  142.9756  163.8100 N.2     1  UNL1       -0.2489
      7 C         139.2677  141.6159  163.3737 C.2     1  UNL1        0.0777
      8 C         140.0575  141.7772  162.1087 C.2     1  UNL1        0.0107
      9 C         140.0865  143.2366  161.7632 C.3     1  UNL1        0.1691
     10 C         138.9864  140.3220  164.0786 C.ar    1  UNL1        0.0197
     11 C         139.2150  139.0183  163.3729 C.ar    1  UNL1        0.0039
     12 C         138.9337  137.7246  164.0779 C.ar    1  UNL1        0.0320
     13 C         138.4238  137.7345  165.4885 C.ar    1  UNL1        0.1674
     14 F         138.1425  136.4407  166.1935 F       1  UNL1       -0.2018
     15 C         138.1952  139.0382  166.1942 C.ar    1  UNL1        0.1674
     16 F         137.6853  139.0482  167.6048 F       1  UNL1       -0.2018
     17 C         138.4765  140.3320  165.4893 C.ar    1  UNL1        0.0334
     18 C         143.0318  141.7646  157.4727 C.3     1  UNL1        0.0849
     19 C         141.5893  142.1063  157.2431 C.3     1  UNL1        0.0600
     20 C         140.8175  142.8470  158.2945 C.3     1  UNL1        0.2025
     21 N         141.4880  143.2461  159.5756 N.pl3   1  UNL1       -0.1935
     22 C         142.9304  142.9044  159.8052 C.3     1  UNL1        0.2025
     23 C         143.7023  142.1637  158.7537 C.3     1  UNL1        0.0600
     24 C         143.6307  135.0293  156.2376 C.3     1  UNL1        0.0897
     25 N         143.6739  136.5280  156.2835 N.3     1  UNL1       -0.2686
     26 C         142.9021  137.2686  157.3349 C.3     1  UNL1        0.0939
     27 C         142.9453  138.7674  157.3809 C.3     1  UNL1        0.1107
     28 N         143.7604  139.5253  156.3753 N.am    1  UNL1       -0.2767
     29 C         143.8037  141.0240  156.4212 C.2     1  UNL1        0.2255
     30 O         144.6188  141.7819  155.4157 O.2     1  UNL1       -0.2749
     31 C         144.5323  138.7846  155.3238 C.3     1  UNL1        0.1107
     32 C         144.4890  137.2859  155.2779 C.3     1  UNL1        0.0939
@<TRIPOS>BOND
     1    24    25    1
     2    25    26    1
     3    26    27    1
     4    27    28    1
     5    28    29   am
     6    29    30    2
     7    29    18    1
     8    18    19    1
     9    19    20    1
    10    20    21    1
    11    21     1    1
    12     1     2    2
    13     2     3    1
    14     3     4    2
    15     4     5    1
    16     5     6    2
    17     6     7    1
    18     7    10    1
    19    10    11   ar
    20    11    12   ar
    21    12    13   ar
    22    13    14    1
    23    13    15   ar
    24    15    16    1
    25    15    17   ar
    26     7     8    2
    27     8     9    1
    28    21    22    1
    29    22    23    1
    30    28    31    1
    31    31    32    1
    32    32    25    1
    33    23    18    1
    34     9     1    1
    35     9     5    1
    36    17    10   ar
@<TRIPOS>MOLECULE
*****
 32 36 0 0 0
SMALL
GASTEIGER

@<TRIPOS>ATOM
      1 C         139.5921  139.8593  163.2139 C.2     1  UNL1        0.3094
      2 N         138.9315  138.5985  162.7407 N.2     1  UNL1       -0.0400
      3 C         138.6658  137.4827  163.7072 C.2     1  UNL1        0.2366
      4 C         139.0608  137.6276  165.1470 C.2     1  UNL1        0.0661
      5 C         139.7215  138.8883  165.6202 C.2     1  UNL1        0.0782
      6 N         140.2191  139.3154  166.9693 N.2     1  UNL1       -0.2489
      7 C         140.7923  140.6952  166.8365 C.2     1  UNL1        0.0777
      8 C         140.6490  141.1209  165.4053 C.2     1  UNL1        0.0107
      9 C         139.9872  140.0042  164.6536 C.3     1  UNL1        0.1691
     10 C         141.4019  141.5068  167.9410 C.ar    1  UNL1        0.0197
     11 C         142.7639  141.1584  168.4639 C.ar    1  UNL1        0.0039
     12 C         143.3733  141.9700  169.5684 C.ar    1  UNL1        0.0320
     13 C         142.6208  143.1299  170.1499 C.ar    1  UNL1        0.1674
     14 F         143.2303  143.9415  171.2544 F       1  UNL1       -0.2018
     15 C         141.2588  143.4783  169.6270 C.ar    1  UNL1        0.1674
     16 F         140.5062  144.6383  170.2085 F       1  UNL1       -0.2018
     17 C         140.6493  142.6667  168.5225 C.ar    1  UNL1        0.0334
     18 C         140.3891  143.2070  160.3142 C.3     1  UNL1        0.0849
     19 C         139.2466  143.3081  161.2809 C.3     1  UNL1        0.0600
     20 C         138.9810  142.1922  162.2475 C.3     1  UNL1        0.2025
     21 N         139.8578  140.9752  162.2473 N.pl3   1  UNL1       -0.1935
     22 C         141.0003  140.8740  161.2806 C.3     1  UNL1        0.2025
     23 C         141.2660  141.9899  160.3140 C.3     1  UNL1        0.0600
     24 C         137.9416  144.3662  153.9964 C.3     1  UNL1        0.0897
     25 N         138.6199  144.3554  155.3342 N.3     1  UNL1       -0.2686
     26 C         138.3542  143.2395  156.3007 C.3     1  UNL1        0.0939
     27 C         139.0326  143.2286  157.6386 C.3     1  UNL1        0.1107
     28 N         139.9765  144.3337  158.0099 N.am    1  UNL1       -0.2767
     29 C         140.6548  144.3229  159.3477 C.2     1  UNL1        0.2255
     30 O         141.5987  145.4279  159.7190 O.2     1  UNL1       -0.2749
     31 C         140.2421  145.4496  157.0433 C.3     1  UNL1        0.1107
     32 C         139.5638  145.4605  155.7055 C.3     1  UNL1        0.0939
@<TRIPOS>BOND
     1    24    25    1
     2    25    26    1
     3    26    27    1
     4    27    28    1
     5    28    29   am
     6    29    30    2
     7    29    18    1
     8    18    19    1
     9    19    20    1
    10    20    21    1
    11    21     1    1
    12     1     2    2
    13     2     3    1
    14     3     4    2
    15     4     5    1
    16     5     6    2
    17     6     7    1
    18     7    10    1
    19    10    11   ar
    20    11    12   ar
    21    12    13   ar
    22    13    14    1
    23    13    15   ar
    24    15    16    1
    25    15    17   ar
    26     7     8    2
    27     8     9    1
    28    21    22    1
    29    22    23    1
    30    28    31    1
    31    31    32    1
    32    32    25    1
    33    23    18    1
    34     9     1    1
    35     9     5    1
    36    17    10   ar
@<TRIPOS>MOLECULE
*****
 32 36 0 0 0
SMALL
GASTEIGER

@<TRIPOS>ATOM
      1 C         139.5351  142.4113  162.7564 C.2     1  UNL1        0.3094
      2 N         138.5833  143.4220  162.1884 N.2     1  UNL1       -0.0400
      3 C         137.9564  144.4483  163.0848 C.2     1  UNL1        0.2366
      4 C         138.2813  144.4641  164.5491 C.2     1  UNL1        0.0661
      5 C         139.2331  143.4534  165.1170 C.2     1  UNL1        0.0782
      6 N         139.7405  143.2243  166.5099 N.2     1  UNL1       -0.2489
      7 C         140.6810  142.0563  166.4744 C.2     1  UNL1        0.0777
      8 C         140.7549  141.5635  165.0596 C.2     1  UNL1        0.0107
      9 C         139.8600  142.4271  164.2207 C.3     1  UNL1        0.1691
     10 C         141.4181  141.4819  167.6477 C.ar    1  UNL1        0.0197
     11 C         140.9680  140.1863  168.2551 C.ar    1  UNL1        0.0039
     12 C         141.7051  139.6120  169.4284 C.ar    1  UNL1        0.0320
     13 C         142.8924  140.3332  169.9944 C.ar    1  UNL1        0.1674
     14 F         143.6295  139.7588  171.1677 F       1  UNL1       -0.2018
     15 C         143.3425  141.6287  169.3870 C.ar    1  UNL1        0.1674
     16 F         144.5298  142.3499  169.9530 F       1  UNL1       -0.2018
     17 C         142.6054  142.2031  168.2137 C.ar    1  UNL1        0.0334
     18 C         141.4160  139.3320  160.0673 C.3     1  UNL1        0.0849
     19 C         140.3406  138.9287  161.0322 C.3     1  UNL1        0.0600
     20 C         139.7137  139.9551  161.9285 C.3     1  UNL1        0.2025
     21 N         140.1621  141.3849  161.8600 N.pl3   1  UNL1       -0.1935
     22 C         141.2374  141.7882  160.8952 C.3     1  UNL1        0.2025
     23 C         141.8644  140.7618  159.9988 C.3     1  UNL1        0.0600
     24 C         139.4583  136.9121  153.9387 C.3     1  UNL1        0.0897
     25 N         140.1044  137.2604  155.2468 N.3     1  UNL1       -0.2686
     26 C         139.4775  138.2869  156.1431 C.3     1  UNL1        0.0939
     27 C         140.1237  138.6353  157.4512 C.3     1  UNL1        0.1107
     28 N         141.3967  137.9572  157.8630 N.am    1  UNL1       -0.2767
     29 C         142.0429  138.3056  159.1710 C.2     1  UNL1        0.2255
     30 O         143.3159  137.6275  159.5828 O.2     1  UNL1       -0.2749
     31 C         142.0236  136.9307  156.9666 C.3     1  UNL1        0.1107
     32 C         141.3775  136.5824  155.6585 C.3     1  UNL1        0.0939
@<TRIPOS>BOND
     1    24    25    1
     2    25    26    1
     3    26    27    1
     4    27    28    1
     5    28    29   am
     6    29    30    2
     7    29    18    1
     8    18    19    1
     9    19    20    1
    10    20    21    1
    11    21     1    1
    12     1     2    2
    13     2     3    1
    14     3     4    2
    15     4     5    1
    16     5     6    2
    17     6     7    1
    18     7    10    1
    19    10    11   ar
    20    11    12   ar
    21    12    13   ar
    22    13    14    1
    23    13    15   ar
    24    15    16    1
    25    15    17   ar
    26     7     8    2
    27     8     9    1
    28    21    22    1
    29    22    23    1
    30    28    31    1
    31    31    32    1
    32    32    25    1
    33    23    18    1
    34     9     1    1
    35     9     5    1
    36    17    10   ar
@<TRIPOS>MOLECULE
*****
 32 36 0 0 0
SMALL
GASTEIGER

@<TRIPOS>ATOM
      1 C         143.4346  141.9774  162.0637 C.2     1  UNL1        0.3094
      2 N         144.9096  142.2447  162.0127 N.2     1  UNL1       -0.0400
      3 C         145.7999  141.7499  163.1139 C.2     1  UNL1        0.2366
      4 C         145.2151  140.9878  164.2659 C.2     1  UNL1        0.0661
      5 C         143.7401  140.7205  164.3169 C.2     1  UNL1        0.0782
      6 N         142.8841  140.0024  165.3176 N.2     1  UNL1       -0.2489
      7 C         141.4647  140.0533  164.8350 C.2     1  UNL1        0.0777
      8 C         141.4435  140.8030  163.5360 C.2     1  UNL1        0.0107
      9 C         142.8498  141.2153  163.2157 C.3     1  UNL1        0.1691
     10 C         140.2754  139.4590  165.5296 C.ar    1  UNL1        0.0197
     11 C         139.4950  138.3596  164.8723 C.ar    1  UNL1        0.0039
     12 C         138.3058  137.7653  165.5669 C.ar    1  UNL1        0.0320
     13 C         137.8970  138.2704  166.9188 C.ar    1  UNL1        0.1674
     14 F         136.7077  137.6761  167.6134 F       1  UNL1       -0.2018
     15 C         138.6774  139.3698  167.5762 C.ar    1  UNL1        0.1674
     16 F         138.2686  139.8750  168.9281 F       1  UNL1       -0.2018
     17 C         139.8666  139.9641  166.8816 C.ar    1  UNL1        0.0334
     18 C         140.7635  143.4617  158.7602 C.3     1  UNL1        0.0849
     19 C         141.8256  142.4441  158.4660 C.3     1  UNL1        0.0600
     20 C         142.7159  141.9494  159.5671 C.3     1  UNL1        0.2025
     21 N         142.5442  142.4722  160.9625 N.pl3   1  UNL1       -0.1935
     22 C         141.4821  143.4897  161.2568 C.3     1  UNL1        0.2025
     23 C         140.5918  143.9845  160.1556 C.3     1  UNL1        0.0600
     24 C         135.2017  140.6473  155.8629 C.3     1  UNL1        0.0897
     25 N         136.3696  141.4746  156.3119 N.3     1  UNL1       -0.2686
     26 C         137.2599  140.9798  157.4130 C.3     1  UNL1        0.0939
     27 C         138.4278  141.8071  157.8621 C.3     1  UNL1        0.1107
     28 N         138.7053  143.1292  157.2100 N.am    1  UNL1       -0.2767
     29 C         139.8732  143.9564  157.6591 C.2     1  UNL1        0.2255
     30 O         140.1507  145.2785  157.0070 O.2     1  UNL1       -0.2749
     31 C         137.8150  143.6239  156.1089 C.3     1  UNL1        0.1107
     32 C         136.6471  142.7966  155.6598 C.3     1  UNL1        0.0939
@<TRIPOS>BOND
     1    24    25    1
     2    25    26    1
     3    26    27    1
     4    27    28    1
     5    28    29   am
     6    29    30    2
     7    29    18    1
     8    18    19    1
     9    19    20    1
    10    20    21    1
    11    21     1    1
    12     1     2    2
    13     2     3    1
    14     3     4    2
    15     4     5    1
    16     5     6    2
    17     6     7    1
    18     7    10    1
    19    10    11   ar
    20    11    12   ar
    21    12    13   ar
    22    13    14    1
    23    13    15   ar
    24    15    16    1
    25    15    17   ar
    26     7     8    2
    27     8     9    1
    28    21    22    1
    29    22    23    1
    30    28    31    1
    31    31    32    1
    32    32    25    1
    33    23    18    1
    34     9     1    1
    35     9     5    1
    36    17    10   ar
@<TRIPOS>MOLECULE
*****
 32 36 0 0 0
SMALL
GASTEIGER

@<TRIPOS>ATOM
      1 C         142.7360  138.7481  157.2837 C.2     1  UNL1        0.3094
      2 N         143.2455  139.9693  156.5772 N.2     1  UNL1       -0.0400
      3 C         144.1502  139.8259  155.3895 C.2     1  UNL1        0.2366
      4 C         144.5455  138.4613  154.9082 C.2     1  UNL1        0.0661
      5 C         144.0360  137.2401  155.6146 C.2     1  UNL1        0.0782
      6 N         144.2529  135.7760  155.3712 N.2     1  UNL1       -0.2489
      7 C         143.4821  135.0145  156.4086 C.2     1  UNL1        0.0777
      8 C         142.7890  136.0080  157.2931 C.2     1  UNL1        0.0107
      9 C         143.1313  137.3835  156.8024 C.3     1  UNL1        0.1691
     10 C         143.4162  133.5215  156.5386 C.ar    1  UNL1        0.0197
     11 C         142.3697  132.7491  155.7915 C.ar    1  UNL1        0.0039
     12 C         142.3038  131.2563  155.9215 C.ar    1  UNL1        0.0320
     13 C         143.2844  130.5358  156.7985 C.ar    1  UNL1        0.1674
     14 F         143.2185  129.0428  156.9285 F       1  UNL1       -0.2018
     15 C         144.3310  131.3082  157.5456 C.ar    1  UNL1        0.1674
     16 F         145.3116  130.5877  158.4227 F       1  UNL1       -0.2018
     17 C         144.3968  132.8010  157.4156 C.ar    1  UNL1        0.0334
     18 C         140.0217  139.1782  160.8471 C.3     1  UNL1        0.0849
     19 C         139.4804  139.3818  159.4630 C.3     1  UNL1        0.0600
     20 C         140.3852  139.2384  158.2753 C.3     1  UNL1        0.2025
     21 N         141.8313  138.8915  158.4715 N.pl3   1  UNL1       -0.1935
     22 C         142.3726  138.6879  159.8555 C.3     1  UNL1        0.2025
     23 C         141.4678  138.8313  161.0434 C.3     1  UNL1        0.0600
     24 C         138.6068  144.6247  164.7946 C.3     1  UNL1        0.0897
     25 N         138.7343  143.2989  164.1047 N.3     1  UNL1       -0.2686
     26 C         139.6391  143.1556  162.9170 C.3     1  UNL1        0.0939
     27 C         139.7667  141.8298  162.2270 C.3     1  UNL1        0.1107
     28 N         138.9894  140.6474  162.7248 N.am    1  UNL1       -0.2767
     29 C         139.1169  139.3216  162.0349 C.2     1  UNL1        0.2255
     30 O         138.3397  138.1392  162.5327 O.2     1  UNL1       -0.2749
     31 C         138.0846  140.7908  163.9126 C.3     1  UNL1        0.1107
     32 C         137.9571  142.1166  164.6025 C.3     1  UNL1        0.0939
@<TRIPOS>BOND
     1    24    25    1
     2    25    26    1
     3    26    27    1
     4    27    28    1
     5    28    29   am
     6    29    30    2
     7    29    18    1
     8    18    19    1
     9    19    20    1
    10    20    21    1
    11    21     1    1
    12     1     2    2
    13     2     3    1
    14     3     4    2
    15     4     5    1
    16     5     6    2
    17     6     7    1
    18     7    10    1
    19    10    11   ar
    20    11    12   ar
    21    12    13   ar
    22    13    14    1
    23    13    15   ar
    24    15    16    1
    25    15    17   ar
    26     7     8    2
    27     8     9    1
    28    21    22    1
    29    22    23    1
    30    28    31    1
    31    31    32    1
    32    32    25    1
    33    23    18    1
    34     9     1    1
    35     9     5    1
    36    17    10   ar
@<TRIPOS>MOLECULE
*****
 32 36 0 0 0
SMALL
GASTEIGER

@<TRIPOS>ATOM
      1 C         140.5973  139.1186  162.9570 C.2     1  UNL1        0.3094
      2 N         139.6469  138.0722  162.4551 N.2     1  UNL1       -0.0400
      3 C         138.6817  137.4205  163.4003 C.2     1  UNL1        0.2366
      4 C         138.6669  137.8150  164.8474 C.2     1  UNL1        0.0661
      5 C         139.6172  138.8614  165.3493 C.2     1  UNL1        0.0782
      6 N         139.8327  139.4512  166.7116 N.2     1  UNL1       -0.2489
      7 C         140.9311  140.4675  166.6083 C.2     1  UNL1        0.0777
      8 C         141.3945  140.5058  165.1822 C.2     1  UNL1        0.0107
      9 C         140.5824  139.5132  164.4041 C.3     1  UNL1        0.1691
     10 C         141.4712  141.2994  167.7336 C.ar    1  UNL1        0.0197
     11 C         142.8108  140.9788  168.3273 C.ar    1  UNL1        0.0039
     12 C         143.3508  141.8107  169.4526 C.ar    1  UNL1        0.0320
     13 C         142.5513  142.9633  169.9840 C.ar    1  UNL1        0.1674
     14 F         143.0914  143.7952  171.1093 F       1  UNL1       -0.2018
     15 C         141.2117  143.2839  169.3902 C.ar    1  UNL1        0.1674
     16 F         140.4121  144.4364  169.9217 F       1  UNL1       -0.2018
     17 C         140.6716  142.4519  168.2650 C.ar    1  UNL1        0.0334
     18 C         143.4931  141.0741  160.1214 C.3     1  UNL1        0.0849
     19 C         143.9338  139.9106  160.9593 C.3     1  UNL1        0.0600
     20 C         142.9685  139.2588  161.9045 C.3     1  UNL1        0.2025
     21 N         141.5626  139.7705  162.0118 N.pl3   1  UNL1       -0.1935
     22 C         141.1219  140.9339  161.1739 C.3     1  UNL1        0.2025
     23 C         142.0872  141.5858  160.2286 C.3     1  UNL1        0.0600
     24 C         144.9860  139.6963  153.5546 C.3     1  UNL1        0.0897
     25 N         144.8541  140.2037  154.9600 N.3     1  UNL1       -0.2686
     26 C         143.8889  139.5519  155.9052 C.3     1  UNL1        0.0939
     27 C         143.7569  140.0593  157.3106 C.3     1  UNL1        0.1107
     28 N         144.5903  141.2185  157.7708 N.am    1  UNL1       -0.2767
     29 C         144.4584  141.7259  159.1762 C.2     1  UNL1        0.2255
     30 O         145.2918  142.8851  159.6364 O.2     1  UNL1       -0.2749
     31 C         145.5556  141.8703  156.8256 C.3     1  UNL1        0.1107
     32 C         145.6875  141.3629  155.4202 C.3     1  UNL1        0.0939
@<TRIPOS>BOND
     1    24    25    1
     2    25    26    1
     3    26    27    1
     4    27    28    1
     5    28    29   am
     6    29    30    2
     7    29    18    1
     8    18    19    1
     9    19    20    1
    10    20    21    1
    11    21     1    1
    12     1     2    2
    13     2     3    1
    14     3     4    2
    15     4     5    1
    16     5     6    2
    17     6     7    1
    18     7    10    1
    19    10    11   ar
    20    11    12   ar
    21    12    13   ar
    22    13    14    1
    23    13    15   ar
    24    15    16    1
    25    15    17   ar
    26     7     8    2
    27     8     9    1
    28    21    22    1
    29    22    23    1
    30    28    31    1
    31    31    32    1
    32    32    25    1
    33    23    18    1
    34     9     1    1
    35     9     5    1
    36    17    10   ar
@<TRIPOS>MOLECULE
*****
 32 36 0 0 0
SMALL
GASTEIGER

@<TRIPOS>ATOM
      1 C         140.0498  143.5645  160.7069 C.2     1  UNL1        0.3094
      2 N         139.7315  144.9663  160.2787 N.2     1  UNL1       -0.0400
      3 C         139.8813  146.0995  161.2500 C.2     1  UNL1        0.2366
      4 C         140.3493  145.8308  162.6495 C.2     1  UNL1        0.0661
      5 C         140.6676  144.4289  163.0778 C.2     1  UNL1        0.0782
      6 N         141.1456  143.8617  164.3816 N.2     1  UNL1       -0.2489
      7 C         141.2912  142.3780  164.2160 C.2     1  UNL1        0.0777
      8 C         140.9032  142.0282  162.8100 C.2     1  UNL1        0.0107
      9 C         140.5178  143.2958  162.1065 C.3     1  UNL1        0.1691
     10 C         141.7452  141.4135  165.2714 C.ar    1  UNL1        0.0197
     11 C         141.9560  141.8866  166.6791 C.ar    1  UNL1        0.0039
     12 C         142.4100  140.9220  167.7343 C.ar    1  UNL1        0.0320
     13 C         142.6530  139.4844  167.3819 C.ar    1  UNL1        0.1674
     14 F         143.1070  138.5199  168.4372 F       1  UNL1       -0.2018
     15 C         142.4422  139.0114  165.9742 C.ar    1  UNL1        0.1674
     16 F         142.6852  137.5738  165.6217 F       1  UNL1       -0.2018
     17 C         141.9882  139.9759  164.9189 C.ar    1  UNL1        0.0334
     18 C         139.6004  140.1647  157.7931 C.3     1  UNL1        0.0849
     19 C         138.7555  140.2076  159.0318 C.3     1  UNL1        0.0600
     20 C         138.9053  141.3408  160.0030 C.3     1  UNL1        0.2025
     21 N         139.9000  142.4312  159.7356 N.pl3   1  UNL1       -0.1935
     22 C         140.7449  142.3885  158.4970 C.3     1  UNL1        0.2025
     23 C         140.5951  141.2552  157.5257 C.3     1  UNL1        0.0600
     24 C         143.6364  134.7415  156.5487 C.3     1  UNL1        0.0897
     25 N         142.5899  135.8140  156.6170 N.3     1  UNL1       -0.2686
     26 C         142.7397  136.9472  157.5882 C.3     1  UNL1        0.0939
     27 C         141.6933  138.0198  157.6565 C.3     1  UNL1        0.1107
     28 N         140.4971  137.9590  156.7536 N.am    1  UNL1       -0.2767
     29 C         139.4506  139.0315  156.8218 C.2     1  UNL1        0.2255
     30 O         138.2544  138.9708  155.9189 O.2     1  UNL1       -0.2749
     31 C         140.3473  136.8258  155.7823 C.3     1  UNL1        0.1107
     32 C         141.3937  135.7533  155.7140 C.3     1  UNL1        0.0939
@<TRIPOS>BOND
     1    24    25    1
     2    25    26    1
     3    26    27    1
     4    27    28    1
     5    28    29   am
     6    29    30    2
     7    29    18    1
     8    18    19    1
     9    19    20    1
    10    20    21    1
    11    21     1    1
    12     1     2    2
    13     2     3    1
    14     3     4    2
    15     4     5    1
    16     5     6    2
    17     6     7    1
    18     7    10    1
    19    10    11   ar
    20    11    12   ar
    21    12    13   ar
    22    13    14    1
    23    13    15   ar
    24    15    16    1
    25    15    17   ar
    26     7     8    2
    27     8     9    1
    28    21    22    1
    29    22    23    1
    30    28    31    1
    31    31    32    1
    32    32    25    1
    33    23    18    1
    34     9     1    1
    35     9     5    1
    36    17    10   ar
@<TRIPOS>MOLECULE
*****
 32 36 0 0 0
SMALL
GASTEIGER

@<TRIPOS>ATOM
      1 C         142.9590  143.0278  161.7169 C.2     1  UNL1        0.3094
      2 N         143.7450  144.2919  161.9019 N.2     1  UNL1       -0.0400
      3 C         143.8167  144.9395  163.2529 C.2     1  UNL1        0.2366
      4 C         143.1024  144.3231  164.4190 C.2     1  UNL1        0.0661
      5 C         142.3164  143.0590  164.2341 C.2     1  UNL1        0.0782
      6 N         141.5147  142.2266  165.1903 N.2     1  UNL1       -0.2489
      7 C         140.9475  141.0644  164.4302 C.2     1  UNL1        0.0777
      8 C         141.3987  141.1786  163.0042 C.2     1  UNL1        0.0107
      9 C         142.2447  142.4114  162.8830 C.3     1  UNL1        0.1691
     10 C         140.0813  139.9787  164.9967 C.ar    1  UNL1        0.0197
     11 C         139.8792  138.7045  164.2315 C.ar    1  UNL1        0.0039
     12 C         139.0130  137.6188  164.7980 C.ar    1  UNL1        0.0320
     13 C         138.3489  137.8074  166.1297 C.ar    1  UNL1        0.1674
     14 F         137.4826  136.7216  166.6962 F       1  UNL1       -0.2018
     15 C         138.5509  139.0816  166.8949 C.ar    1  UNL1        0.1674
     16 F         137.8868  139.2701  168.2265 F       1  UNL1       -0.2018
     17 C         139.4171  140.1672  166.3284 C.ar    1  UNL1        0.0334
     18 C         142.7439  141.0846  157.6637 C.3     1  UNL1        0.0849
     19 C         144.0089  141.0078  158.4662 C.3     1  UNL1        0.0600
     20 C         144.0806  141.6555  159.8172 C.3     1  UNL1        0.2025
     21 N         142.8873  142.3801  160.3658 N.pl3   1  UNL1       -0.1935
     22 C         141.6223  142.4569  159.5635 C.3     1  UNL1        0.2025
     23 C         141.5506  141.8092  158.2124 C.3     1  UNL1        0.0600
     24 C         142.6585  134.4548  155.8508 C.3     1  UNL1        0.0897
     25 N         142.6619  135.9503  155.9662 N.3     1  UNL1       -0.2686
     26 C         142.7336  136.5980  157.3173 C.3     1  UNL1        0.0939
     27 C         142.7370  138.0936  157.4328 C.3     1  UNL1        0.1107
     28 N         142.6688  138.9414  156.1972 N.am    1  UNL1       -0.2767
     29 C         142.6722  140.4369  156.3127 C.2     1  UNL1        0.2255
     30 O         142.6040  141.2847  155.0772 O.2     1  UNL1       -0.2749
     31 C         142.5971  138.2936  154.8462 C.3     1  UNL1        0.1107
     32 C         142.5937  136.7981  154.7307 C.3     1  UNL1        0.0939
@<TRIPOS>BOND
     1    24    25    1
     2    25    26    1
     3    26    27    1
     4    27    28    1
     5    28    29   am
     6    29    30    2
     7    29    18    1
     8    18    19    1
     9    19    20    1
    10    20    21    1
    11    21     1    1
    12     1     2    2
    13     2     3    1
    14     3     4    2
    15     4     5    1
    16     5     6    2
    17     6     7    1
    18     7    10    1
    19    10    11   ar
    20    11    12   ar
    21    12    13   ar
    22    13    14    1
    23    13    15   ar
    24    15    16    1
    25    15    17   ar
    26     7     8    2
    27     8     9    1
    28    21    22    1
    29    22    23    1
    30    28    31    1
    31    31    32    1
    32    32    25    1
    33    23    18    1
    34     9     1    1
    35     9     5    1
    36    17    10   ar
@<TRIPOS>MOLECULE
*****
 32 36 0 0 0
SMALL
GASTEIGER

@<TRIPOS>ATOM
      1 C         143.5865  139.9851  157.0855 C.2     1  UNL1        0.3094
      2 N         143.7265  141.1107  156.1041 N.2     1  UNL1       -0.0400
      3 C         143.9642  142.5082  156.5945 C.2     1  UNL1        0.2366
      4 C         144.0618  142.7799  158.0665 C.2     1  UNL1        0.0661
      5 C         143.9218  141.6543  159.0479 C.2     1  UNL1        0.0782
      6 N         143.9720  141.6172  160.5466 N.2     1  UNL1       -0.2489
      7 C         143.7654  140.1969  160.9824 C.2     1  UNL1        0.0777
      8 C         143.5874  139.3561  159.7530 C.2     1  UNL1        0.0107
      9 C         143.6841  140.2569  158.5574 C.3     1  UNL1        0.1691
     10 C         143.7409  139.7039  162.3989 C.ar    1  UNL1        0.0197
     11 C         144.8260  140.1079  163.3524 C.ar    1  UNL1        0.0039
     12 C         144.8016  139.6149  164.7689 C.ar    1  UNL1        0.0320
     13 C         143.6920  138.7179  165.2318 C.ar    1  UNL1        0.1674
     14 F         143.6675  138.2249  166.6483 F       1  UNL1       -0.2018
     15 C         142.6069  138.3139  164.2782 C.ar    1  UNL1        0.1674
     16 F         141.4973  137.4170  164.7411 F       1  UNL1       -0.2018
     17 C         142.6314  138.8069  162.8618 C.ar    1  UNL1        0.0334
     18 C         142.8734  135.7926  155.6141 C.3     1  UNL1        0.0849
     19 C         144.1173  136.5276  155.2108 C.3     1  UNL1        0.0600
     20 C         144.3549  137.9251  155.7013 C.3     1  UNL1        0.2025
     21 N         143.3488  138.5876  156.5950 N.pl3   1  UNL1       -0.1935
     22 C         142.1049  137.8526  156.9983 C.3     1  UNL1        0.2025
     23 C         141.8672  136.4551  156.5078 C.3     1  UNL1        0.0600
     24 C         144.8465  129.7274  158.1772 C.3     1  UNL1        0.0897
     25 N         144.2938  130.8943  157.4138 N.3     1  UNL1       -0.2686
     26 C         144.5315  132.2918  157.9043 C.3     1  UNL1        0.0939
     27 C         143.9788  133.4588  157.1409 C.3     1  UNL1        0.1107
     28 N         143.1884  133.2282  155.8870 N.am    1  UNL1       -0.2767
     29 C         142.6357  134.3951  155.1236 C.2     1  UNL1        0.2255
     30 O         141.8454  134.1646  153.8697 O.2     1  UNL1       -0.2749
     31 C         142.9508  131.8307  155.3965 C.3     1  UNL1        0.1107
     32 C         143.5035  130.6638  156.1599 C.3     1  UNL1        0.0939
@<TRIPOS>BOND
     1    24    25    1
     2    25    26    1
     3    26    27    1
     4    27    28    1
     5    28    29   am
     6    29    30    2
     7    29    18    1
     8    18    19    1
     9    19    20    1
    10    20    21    1
    11    21     1    1
    12     1     2    2
    13     2     3    1
    14     3     4    2
    15     4     5    1
    16     5     6    2
    17     6     7    1
    18     7    10    1
    19    10    11   ar
    20    11    12   ar
    21    12    13   ar
    22    13    14    1
    23    13    15   ar
    24    15    16    1
    25    15    17   ar
    26     7     8    2
    27     8     9    1
    28    21    22    1
    29    22    23    1
    30    28    31    1
    31    31    32    1
    32    32    25    1
    33    23    18    1
    34     9     1    1
    35     9     5    1
    36    17    10   ar
