@<TRIPOS>MOLECULE
*****
 33 37 0 0 0
SMALL
GASTEIGER

@<TRIPOS>ATOM
      1 O         140.8294  136.9297  162.8269 O.2     1  UNL1       -0.2668
      2 C         140.4754  138.3680  163.0633 C.2     1  UNL1        0.2806
      3 N         140.4426  139.3311  161.9138 N.am    1  UNL1       -0.2999
      4 H         140.2103  140.2751  162.0690 H       1  UNL1        0.1498
      5 C         140.1543  138.8434  164.4494 C.ar    1  UNL1        0.2014
      6 C         138.8790  138.4147  165.1126 C.ar    1  UNL1        0.0843
      7 C         138.5580  138.8900  166.4985 C.ar    1  UNL1        0.2019
      8 O         137.2826  138.4613  167.1618 O.2     1  UNL1       -0.2864
      9 C         139.5121  139.7940  167.2213 C.ar    1  UNL1        0.0758
     10 C         139.1910  140.2693  168.6073 C.ar    1  UNL1        0.0367
     11 C         140.1451  141.1733  169.3300 C.ar    1  UNL1        0.1509
     12 F         139.8240  141.6486  170.7160 F       1  UNL1       -0.2033
     13 C         141.4204  141.6020  168.6667 C.ar    1  UNL1        0.0881
     14 CL        142.3746  142.5060  169.3895 Cl      1  UNL1       -0.0798
     15 C         141.7415  141.1267  167.2808 C.ar    1  UNL1        0.0512
     16 C         140.7874  140.2227  166.5581 C.ar    1  UNL1        0.1495
     17 O         141.1085  139.7474  165.1721 O.2     1  UNL1       -0.4487
     18 C         140.7638  138.8557  160.5277 C.3     1  UNL1        0.0747
     19 C         139.6568  138.5848  159.5525 C.3     1  UNL1        0.0369
     20 C         139.9780  138.1095  158.1665 C.3     1  UNL1        0.0741
     21 N         141.4061  137.9052  157.7558 N.3     1  UNL1       -0.2688
     22 C         142.5131  138.1762  158.7311 C.3     1  UNL1        0.0741
     23 C         142.1919  138.6515  160.1170 C.3     1  UNL1        0.0369
     24 C         141.7273  137.4299  156.3698 C.3     1  UNL1        0.0992
     25 C         142.0170  135.9790  156.1228 C.ar    1  UNL1       -0.0029
     26 C         141.1412  135.1860  155.1986 C.ar    1  UNL1        0.0004
     27 C         141.4309  133.7352  154.9516 C.ar    1  UNL1        0.0399
     28 C         142.5966  133.0773  155.6288 C.ar    1  UNL1        0.1764
     29 C         143.4724  133.8703  156.5529 C.ar    1  UNL1        0.1762
     30 C         143.1826  135.3212  156.7999 C.ar    1  UNL1        0.0373
     31 O         144.5423  132.9574  157.0746 O.3     1  UNL1       -0.4346
     32 C         144.3275  131.6003  156.4730 C.3     1  UNL1        0.4294
     33 O         143.1251  131.6743  155.5794 O.3     1  UNL1       -0.4346
@<TRIPOS>BOND
     1     1     2    2
     2     2     3   am
     3     3    18    1
     4    18    19    1
     5    19    20    1
     6    20    21    1
     7    21    24    1
     8    24    25    1
     9    25    26   ar
    10    26    27   ar
    11    27    28   ar
    12    28    29   ar
    13    29    30   ar
    14    29    31    1
    15    31    32    1
    16    32    33    1
    17    21    22    1
    18    22    23    1
    19     2     5    1
    20     5     6   ar
    21     6     7   ar
    22     7     8    2
    23     7     9   ar
    24     9    10   ar
    25    10    11   ar
    26    11    12    1
    27    11    13   ar
    28    13    14    1
    29    13    15   ar
    30    15    16   ar
    31    16    17   ar
    32    23    18    1
    33    17     5   ar
    34    30    25   ar
    35    16     9   ar
    36    33    28    1
    37     3     4    1
@<TRIPOS>MOLECULE
*****
 33 37 0 0 0
SMALL
GASTEIGER

@<TRIPOS>ATOM
      1 O         139.4269  146.1103  160.9484 O.2     1  UNL1       -0.2668
      2 C         140.0776  144.7990  161.2756 C.2     1  UNL1        0.2806
      3 N         140.6999  143.9778  160.1855 N.am    1  UNL1       -0.2999
      4 H         141.1270  143.1172  160.4003 H       1  UNL1        0.1498
      5 C         140.1059  144.3088  162.6931 C.ar    1  UNL1        0.2014
      6 C         139.2643  144.9819  163.7364 C.ar    1  UNL1        0.0843
      7 C         139.2927  144.4918  165.1537 C.ar    1  UNL1        0.2019
      8 O         138.4510  145.1649  166.1971 O.2     1  UNL1       -0.2864
      9 C         140.1627  143.3285  165.5277 C.ar    1  UNL1        0.0758
     10 C         140.1910  142.8384  166.9452 C.ar    1  UNL1        0.0367
     11 C         141.0611  141.6751  167.3192 C.ar    1  UNL1        0.1509
     12 F         141.0894  141.1850  168.7365 F       1  UNL1       -0.2033
     13 C         141.9028  141.0020  166.2758 C.ar    1  UNL1        0.0881
     14 CL        142.7728  139.8388  166.6499 Cl      1  UNL1       -0.0798
     15 C         141.8744  141.4922  164.8585 C.ar    1  UNL1        0.0512
     16 C         141.0043  142.6554  164.4844 C.ar    1  UNL1        0.1495
     17 O         140.9760  143.1456  163.0671 O.2     1  UNL1       -0.4487
     18 C         140.6716  144.4680  158.7681 C.3     1  UNL1        0.0747
     19 C         141.7210  145.4242  158.2840 C.3     1  UNL1        0.0369
     20 C         141.6926  145.9143  156.8667 C.3     1  UNL1        0.0741
     21 N         140.6148  145.4482  155.9334 N.3     1  UNL1       -0.2688
     22 C         139.5654  144.4920  156.4174 C.3     1  UNL1        0.0741
     23 C         139.5937  144.0019  157.8348 C.3     1  UNL1        0.0369
     24 C         140.5864  145.9383  154.5159 C.3     1  UNL1        0.0992
     25 C         140.2652  147.3744  154.2252 C.ar    1  UNL1       -0.0029
     26 C         140.7364  148.0047  152.9483 C.ar    1  UNL1        0.0004
     27 C         140.4151  149.4407  152.6575 C.ar    1  UNL1        0.0399
     28 C         139.6227  150.2465  153.6439 C.ar    1  UNL1        0.1764
     29 C         139.1515  149.6162  154.9208 C.ar    1  UNL1        0.1762
     30 C         139.4728  148.1801  155.2115 C.ar    1  UNL1        0.0373
     31 O         138.3943  150.6524  155.6974 O.3     1  UNL1       -0.4346
     32 C         138.3976  151.9231  154.9003 C.3     1  UNL1        0.4294
     33 O         139.1567  151.6723  153.6312 O.3     1  UNL1       -0.4346
@<TRIPOS>BOND
     1     1     2    2
     2     2     3   am
     3     3    18    1
     4    18    19    1
     5    19    20    1
     6    20    21    1
     7    21    24    1
     8    24    25    1
     9    25    26   ar
    10    26    27   ar
    11    27    28   ar
    12    28    29   ar
    13    29    30   ar
    14    29    31    1
    15    31    32    1
    16    32    33    1
    17    21    22    1
    18    22    23    1
    19     2     5    1
    20     5     6   ar
    21     6     7   ar
    22     7     8    2
    23     7     9   ar
    24     9    10   ar
    25    10    11   ar
    26    11    12    1
    27    11    13   ar
    28    13    14    1
    29    13    15   ar
    30    15    16   ar
    31    16    17   ar
    32    23    18    1
    33    17     5   ar
    34    30    25   ar
    35    16     9   ar
    36    33    28    1
    37     3     4    1
@<TRIPOS>MOLECULE
*****
 33 37 0 0 0
SMALL
GASTEIGER

@<TRIPOS>ATOM
      1 O         140.9832  144.3575  160.7234 O.2     1  UNL1       -0.2668
      2 C         139.9857  144.1063  159.6316 C.2     1  UNL1        0.2806
      3 N         138.8973  143.0933  159.8287 N.am    1  UNL1       -0.2999
      4 H         138.2426  142.9284  159.1121 H       1  UNL1        0.1498
      5 C         140.0768  144.8683  158.3427 C.ar    1  UNL1        0.2014
      6 C         140.8071  144.2786  157.1728 C.ar    1  UNL1        0.0843
      7 C         140.8982  145.0405  155.8840 C.ar    1  UNL1        0.2019
      8 O         141.6285  144.4508  154.7140 O.2     1  UNL1       -0.2864
      9 C         140.2588  146.3922  155.7651 C.ar    1  UNL1        0.0758
     10 C         140.3499  147.1542  154.4762 C.ar    1  UNL1        0.0367
     11 C         139.7106  148.5059  154.3573 C.ar    1  UNL1        0.1509
     12 F         139.8016  149.2679  153.0685 F       1  UNL1       -0.2033
     13 C         138.9802  149.0957  155.5273 C.ar    1  UNL1        0.0881
     14 CL        138.3409  150.4474  155.4084 Cl      1  UNL1       -0.0798
     15 C         138.8892  148.3337  156.8161 C.ar    1  UNL1        0.0512
     16 C         139.5285  146.9820  156.9350 C.ar    1  UNL1        0.1495
     17 O         139.4375  146.2200  158.2238 O.2     1  UNL1       -0.4487
     18 C         138.8062  142.3313  161.1176 C.3     1  UNL1        0.0747
     19 C         139.7228  141.1709  161.3692 C.3     1  UNL1        0.0369
     20 C         139.6317  140.4091  162.6581 C.3     1  UNL1        0.0741
     21 N         138.6241  140.8075  163.6953 N.3     1  UNL1       -0.2688
     22 C         137.7074  141.9679  163.4436 C.3     1  UNL1        0.0741
     23 C         137.7985  142.7298  162.1548 C.3     1  UNL1        0.0369
     24 C         138.5330  140.0455  164.9842 C.3     1  UNL1        0.0992
     25 C         139.2307  140.5578  166.2092 C.ar    1  UNL1       -0.0029
     26 C         139.9626  141.8664  166.1635 C.ar    1  UNL1        0.0004
     27 C         140.6603  142.3787  167.3885 C.ar    1  UNL1        0.0399
     28 C         140.6261  141.5824  168.6593 C.ar    1  UNL1        0.1764
     29 C         139.8943  140.2739  168.7050 C.ar    1  UNL1        0.1762
     30 C         139.1965  139.7616  167.4799 C.ar    1  UNL1        0.0373
     31 O         140.0325  139.7137  170.0896 O.3     1  UNL1       -0.4346
     32 C         140.8497  140.6759  170.8995 C.3     1  UNL1        0.4294
     33 O         141.2166  141.8309  170.0156 O.3     1  UNL1       -0.4346
@<TRIPOS>BOND
     1     1     2    2
     2     2     3   am
     3     3    18    1
     4    18    19    1
     5    19    20    1
     6    20    21    1
     7    21    24    1
     8    24    25    1
     9    25    26   ar
    10    26    27   ar
    11    27    28   ar
    12    28    29   ar
    13    29    30   ar
    14    29    31    1
    15    31    32    1
    16    32    33    1
    17    21    22    1
    18    22    23    1
    19     2     5    1
    20     5     6   ar
    21     6     7   ar
    22     7     8    2
    23     7     9   ar
    24     9    10   ar
    25    10    11   ar
    26    11    12    1
    27    11    13   ar
    28    13    14    1
    29    13    15   ar
    30    15    16   ar
    31    16    17   ar
    32    23    18    1
    33    17     5   ar
    34    30    25   ar
    35    16     9   ar
    36    33    28    1
    37     3     4    1
@<TRIPOS>MOLECULE
*****
 33 37 0 0 0
SMALL
GASTEIGER

@<TRIPOS>ATOM
      1 O         142.4193  139.3198  158.0995 O.2     1  UNL1       -0.2668
      2 C         142.5650  137.8825  158.5032 C.2     1  UNL1        0.2806
      3 N         142.7678  137.5255  159.9459 N.am    1  UNL1       -0.2999
      4 H         142.8634  136.5821  160.2108 H       1  UNL1        0.1498
      5 C         142.5078  136.8021  157.4641 C.ar    1  UNL1        0.2014
      6 C         141.6021  136.9499  156.2776 C.ar    1  UNL1        0.0843
      7 C         141.5449  135.8696  155.2386 C.ar    1  UNL1        0.2019
      8 O         140.6391  136.0173  154.0520 O.2     1  UNL1       -0.2864
      9 C         142.3934  134.6414  155.3861 C.ar    1  UNL1        0.0758
     10 C         142.3362  133.5611  154.3470 C.ar    1  UNL1        0.0367
     11 C         143.1847  132.3330  154.4945 C.ar    1  UNL1        0.1509
     12 F         143.1275  131.2526  153.4555 F       1  UNL1       -0.2033
     13 C         144.0904  132.1852  155.6811 C.ar    1  UNL1        0.0881
     14 CL        144.9390  130.9571  155.8286 Cl      1  UNL1       -0.0798
     15 C         144.1476  133.2655  156.7201 C.ar    1  UNL1        0.0512
     16 C         143.2991  134.4937  156.5726 C.ar    1  UNL1        0.1495
     17 O         143.3563  135.5740  157.6116 O.2     1  UNL1       -0.4487
     18 C         142.8250  138.6059  160.9850 C.3     1  UNL1        0.0747
     19 C         144.1240  139.2962  161.2784 C.3     1  UNL1        0.0369
     20 C         144.1811  140.3765  162.3175 C.3     1  UNL1        0.0741
     21 N         142.9393  140.7664  163.0631 N.3     1  UNL1       -0.2688
     22 C         141.6404  140.0761  162.7696 C.3     1  UNL1        0.0741
     23 C         141.5832  138.9958  161.7306 C.3     1  UNL1        0.0369
     24 C         142.9966  141.8468  164.1021 C.3     1  UNL1        0.0992
     25 C         142.5436  141.5640  165.5038 C.ar    1  UNL1       -0.0029
     26 C         141.5643  142.4808  166.1750 C.ar    1  UNL1        0.0004
     27 C         141.1114  142.1979  167.5767 C.ar    1  UNL1        0.0399
     28 C         141.6378  140.9983  168.3073 C.ar    1  UNL1        0.1764
     29 C         142.6171  140.0815  167.6362 C.ar    1  UNL1        0.1762
     30 C         143.0701  140.3644  166.2344 C.ar    1  UNL1        0.0373
     31 O         142.9601  138.9842  168.5997 O.3     1  UNL1       -0.4346
     32 C         142.1928  139.2228  169.8662 C.3     1  UNL1        0.4294
     33 O         141.3755  140.4675  169.6856 O.3     1  UNL1       -0.4346
@<TRIPOS>BOND
     1     1     2    2
     2     2     3   am
     3     3    18    1
     4    18    19    1
     5    19    20    1
     6    20    21    1
     7    21    24    1
     8    24    25    1
     9    25    26   ar
    10    26    27   ar
    11    27    28   ar
    12    28    29   ar
    13    29    30   ar
    14    29    31    1
    15    31    32    1
    16    32    33    1
    17    21    22    1
    18    22    23    1
    19     2     5    1
    20     5     6   ar
    21     6     7   ar
    22     7     8    2
    23     7     9   ar
    24     9    10   ar
    25    10    11   ar
    26    11    12    1
    27    11    13   ar
    28    13    14    1
    29    13    15   ar
    30    15    16   ar
    31    16    17   ar
    32    23    18    1
    33    17     5   ar
    34    30    25   ar
    35    16     9   ar
    36    33    28    1
    37     3     4    1
@<TRIPOS>MOLECULE
*****
 33 37 0 0 0
SMALL
GASTEIGER

@<TRIPOS>ATOM
      1 O         139.4454  144.8674  161.4314 O.2     1  UNL1       -0.2668
      2 C         140.7010  144.0554  161.5513 C.2     1  UNL1        0.2806
      3 N         141.5074  143.7361  160.3275 N.am    1  UNL1       -0.2999
      4 H         142.3314  143.2032  160.4062 H       1  UNL1        0.1498
      5 C         141.1501  143.5628  162.8951 C.ar    1  UNL1        0.2014
      6 C         142.5075  143.9337  163.4145 C.ar    1  UNL1        0.0843
      7 C         142.9566  143.4410  164.7582 C.ar    1  UNL1        0.2019
      8 O         144.3141  143.8119  165.2778 O.2     1  UNL1       -0.2864
      9 C         142.0483  142.5776  165.5825 C.ar    1  UNL1        0.0758
     10 C         142.4975  142.0850  166.9263 C.ar    1  UNL1        0.0367
     11 C         141.5892  141.2215  167.7506 C.ar    1  UNL1        0.1509
     12 F         142.0382  140.7289  169.0943 F       1  UNL1       -0.2033
     13 C         140.2317  140.8507  167.2310 C.ar    1  UNL1        0.0881
     14 CL        139.3234  139.9872  168.0553 Cl      1  UNL1       -0.0798
     15 C         139.7826  141.3433  165.8873 C.ar    1  UNL1        0.0512
     16 C         140.6909  142.2068  165.0631 C.ar    1  UNL1        0.1495
     17 O         140.2418  142.6994  163.7194 O.2     1  UNL1       -0.4487
     18 C         141.0582  144.2287  158.9837 C.3     1  UNL1        0.0747
     19 C         141.7176  145.4253  158.3648 C.3     1  UNL1        0.0369
     20 C         141.2685  145.9179  157.0211 C.3     1  UNL1        0.0741
     21 N         140.1599  145.2138  156.2963 N.3     1  UNL1       -0.2688
     22 C         139.5004  144.0172  156.9153 C.3     1  UNL1        0.0741
     23 C         139.9496  143.5247  158.2590 C.3     1  UNL1        0.0369
     24 C         139.7107  145.7064  154.9525 C.3     1  UNL1        0.0992
     25 C         139.6933  147.1776  154.6604 C.ar    1  UNL1       -0.0029
     26 C         140.5307  147.7309  153.5457 C.ar    1  UNL1        0.0004
     27 C         140.5133  149.2020  153.2536 C.ar    1  UNL1        0.0399
     28 C         139.6585  150.1200  154.0763 C.ar    1  UNL1        0.1764
     29 C         138.8212  149.5667  155.1910 C.ar    1  UNL1        0.1762
     30 C         138.8386  148.0955  155.4831 C.ar    1  UNL1        0.0373
     31 O         138.0835  150.7076  155.8269 O.3     1  UNL1       -0.4346
     32 C         138.4650  151.9659  155.1051 C.3     1  UNL1        0.4294
     33 O         139.4384  151.6028  154.0232 O.3     1  UNL1       -0.4346
@<TRIPOS>BOND
     1     1     2    2
     2     2     3   am
     3     3    18    1
     4    18    19    1
     5    19    20    1
     6    20    21    1
     7    21    24    1
     8    24    25    1
     9    25    26   ar
    10    26    27   ar
    11    27    28   ar
    12    28    29   ar
    13    29    30   ar
    14    29    31    1
    15    31    32    1
    16    32    33    1
    17    21    22    1
    18    22    23    1
    19     2     5    1
    20     5     6   ar
    21     6     7   ar
    22     7     8    2
    23     7     9   ar
    24     9    10   ar
    25    10    11   ar
    26    11    12    1
    27    11    13   ar
    28    13    14    1
    29    13    15   ar
    30    15    16   ar
    31    16    17   ar
    32    23    18    1
    33    17     5   ar
    34    30    25   ar
    35    16     9   ar
    36    33    28    1
    37     3     4    1
@<TRIPOS>MOLECULE
*****
 33 37 0 0 0
SMALL
GASTEIGER

@<TRIPOS>ATOM
      1 O         144.2698  139.0753  160.0391 O.2     1  UNL1       -0.2668
      2 C         142.9217  138.4299  159.9132 C.2     1  UNL1        0.2806
      3 N         141.9117  138.5821  161.0117 N.am    1  UNL1       -0.2999
      4 H         141.0269  138.1584  160.9290 H       1  UNL1        0.1498
      5 C         142.5835  137.6322  158.6886 C.ar    1  UNL1        0.2014
      6 C         141.5355  138.1275  157.7366 C.ar    1  UNL1        0.0843
      7 C         141.1974  137.3298  156.5122 C.ar    1  UNL1        0.2019
      8 O         140.1494  137.8251  155.5601 O.2     1  UNL1       -0.2864
      9 C         141.9073  136.0368  156.2397 C.ar    1  UNL1        0.0758
     10 C         141.5692  135.2391  155.0152 C.ar    1  UNL1        0.0367
     11 C         142.2790  133.9461  154.7427 C.ar    1  UNL1        0.1509
     12 F         141.9409  133.1484  153.5183 F       1  UNL1       -0.2033
     13 C         143.3271  133.4508  155.6948 C.ar    1  UNL1        0.0881
     14 CL        144.0370  132.1578  155.4224 Cl      1  UNL1       -0.0798
     15 C         143.6652  134.2485  156.9193 C.ar    1  UNL1        0.0512
     16 C         142.9553  135.5415  157.1917 C.ar    1  UNL1        0.1495
     17 O         143.2934  136.3392  158.4162 O.2     1  UNL1       -0.4487
     18 C         142.2499  139.3797  162.2362 C.3     1  UNL1        0.0747
     19 C         141.7552  140.7891  162.3734 C.3     1  UNL1        0.0369
     20 C         142.0934  141.5868  163.5979 C.3     1  UNL1        0.0741
     21 N         142.9262  140.9750  164.6852 N.3     1  UNL1       -0.2688
     22 C         143.4208  139.5656  164.5480 C.3     1  UNL1        0.0741
     23 C         143.0827  138.7680  163.3235 C.3     1  UNL1        0.0369
     24 C         143.2643  141.7727  165.9097 C.3     1  UNL1        0.0992
     25 C         142.4484  141.6125  167.1581 C.ar    1  UNL1       -0.0029
     26 C         142.8934  142.2642  168.4337 C.ar    1  UNL1        0.0004
     27 C         142.0774  142.1041  169.6821 C.ar    1  UNL1        0.0399
     28 C         140.8163  141.2923  169.6549 C.ar    1  UNL1        0.1764
     29 C         140.3713  140.6406  168.3793 C.ar    1  UNL1        0.1762
     30 C         141.1874  140.8007  167.1308 C.ar    1  UNL1        0.0373
     31 O         139.0933  139.9055  168.6556 O.3     1  UNL1       -0.4346
     32 C         138.7485  140.1029  170.1020 C.3     1  UNL1        0.4294
     33 O         139.8133  140.9599  170.7196 O.3     1  UNL1       -0.4346
@<TRIPOS>BOND
     1     1     2    2
     2     2     3   am
     3     3    18    1
     4    18    19    1
     5    19    20    1
     6    20    21    1
     7    21    24    1
     8    24    25    1
     9    25    26   ar
    10    26    27   ar
    11    27    28   ar
    12    28    29   ar
    13    29    30   ar
    14    29    31    1
    15    31    32    1
    16    32    33    1
    17    21    22    1
    18    22    23    1
    19     2     5    1
    20     5     6   ar
    21     6     7   ar
    22     7     8    2
    23     7     9   ar
    24     9    10   ar
    25    10    11   ar
    26    11    12    1
    27    11    13   ar
    28    13    14    1
    29    13    15   ar
    30    15    16   ar
    31    16    17   ar
    32    23    18    1
    33    17     5   ar
    34    30    25   ar
    35    16     9   ar
    36    33    28    1
    37     3     4    1
@<TRIPOS>MOLECULE
*****
 33 37 0 0 0
SMALL
GASTEIGER

@<TRIPOS>ATOM
      1 O         142.0862  138.5934  157.9096 O.2     1  UNL1       -0.2668
      2 C         140.9864  137.7728  157.3038 C.2     1  UNL1        0.2806
      3 N         139.5537  138.1022  157.6016 N.am    1  UNL1       -0.2999
      4 H         138.8318  137.5635  157.2040 H       1  UNL1        0.1498
      5 C         141.3194  136.6226  156.4002 C.ar    1  UNL1        0.2014
      6 C         140.6745  136.5186  155.0500 C.ar    1  UNL1        0.0843
      7 C         141.0075  135.3685  154.1464 C.ar    1  UNL1        0.2019
      8 O         140.3626  135.2644  152.7961 O.2     1  UNL1       -0.2864
      9 C         141.9854  134.3225  154.5932 C.ar    1  UNL1        0.0758
     10 C         142.3184  133.1724  153.6896 C.ar    1  UNL1        0.0367
     11 C         143.2963  132.1264  154.1363 C.ar    1  UNL1        0.1509
     12 F         143.6293  130.9763  153.2328 F       1  UNL1       -0.2033
     13 C         143.9412  132.2305  155.4866 C.ar    1  UNL1        0.0881
     14 CL        144.9191  131.1845  155.9334 Cl      1  UNL1       -0.0798
     15 C         143.6082  133.3805  156.3901 C.ar    1  UNL1        0.0512
     16 C         142.6303  134.4266  155.9434 C.ar    1  UNL1        0.1495
     17 O         142.2973  135.5766  156.8469 O.2     1  UNL1       -0.4487
     18 C         139.2207  139.2523  158.5052 C.3     1  UNL1        0.0747
     19 C         139.1868  139.0529  159.9915 C.3     1  UNL1        0.0369
     20 C         138.8538  140.2030  160.8950 C.3     1  UNL1        0.0741
     21 N         138.5547  141.5524  160.3122 N.3     1  UNL1       -0.2688
     22 C         138.5886  141.7518  158.8260 C.3     1  UNL1        0.0741
     23 C         138.9216  140.6017  157.9224 C.3     1  UNL1        0.0369
     24 C         138.2217  142.7026  161.2158 C.3     1  UNL1        0.0992
     25 C         139.3099  143.3926  161.9837 C.ar    1  UNL1       -0.0029
     26 C         138.9941  144.0795  163.2792 C.ar    1  UNL1        0.0004
     27 C         140.0823  144.7695  164.0470 C.ar    1  UNL1        0.0399
     28 C         141.4865  144.7726  163.5193 C.ar    1  UNL1        0.1764
     29 C         141.8024  144.0857  162.2238 C.ar    1  UNL1        0.1762
     30 C         140.7140  143.3956  161.4560 C.ar    1  UNL1        0.0373
     31 O         143.2685  144.2539  161.9554 O.3     1  UNL1       -0.4346
     32 C         143.8587  145.0449  163.0849 C.3     1  UNL1        0.4294
     33 O         142.7575  145.3654  164.0515 O.3     1  UNL1       -0.4346
@<TRIPOS>BOND
     1     1     2    2
     2     2     3   am
     3     3    18    1
     4    18    19    1
     5    19    20    1
     6    20    21    1
     7    21    24    1
     8    24    25    1
     9    25    26   ar
    10    26    27   ar
    11    27    28   ar
    12    28    29   ar
    13    29    30   ar
    14    29    31    1
    15    31    32    1
    16    32    33    1
    17    21    22    1
    18    22    23    1
    19     2     5    1
    20     5     6   ar
    21     6     7   ar
    22     7     8    2
    23     7     9   ar
    24     9    10   ar
    25    10    11   ar
    26    11    12    1
    27    11    13   ar
    28    13    14    1
    29    13    15   ar
    30    15    16   ar
    31    16    17   ar
    32    23    18    1
    33    17     5   ar
    34    30    25   ar
    35    16     9   ar
    36    33    28    1
    37     3     4    1
@<TRIPOS>MOLECULE
*****
 33 37 0 0 0
SMALL
GASTEIGER

@<TRIPOS>ATOM
      1 O         140.6878  138.0085  162.3302 O.2     1  UNL1       -0.2668
      2 C         140.8152  139.4995  162.2274 C.2     1  UNL1        0.2806
      3 N         141.0804  140.1396  160.8971 N.am    1  UNL1       -0.2999
      4 H         141.1640  141.1182  160.8296 H       1  UNL1        0.1498
      5 C         140.6774  140.3504  163.4550 C.ar    1  UNL1        0.2014
      6 C         139.5884  141.3787  163.5365 C.ar    1  UNL1        0.0843
      7 C         139.4507  142.2296  164.7640 C.ar    1  UNL1        0.2019
      8 O         138.3617  143.2580  164.8455 O.2     1  UNL1       -0.2864
      9 C         140.4019  142.0522  165.9102 C.ar    1  UNL1        0.0758
     10 C         140.2641  142.9031  167.1378 C.ar    1  UNL1        0.0367
     11 C         141.2154  142.7257  168.2840 C.ar    1  UNL1        0.1509
     12 F         141.0776  143.5766  169.5115 F       1  UNL1       -0.2033
     13 C         142.3044  141.6973  168.2025 C.ar    1  UNL1        0.0881
     14 CL        143.2556  141.5199  169.3486 Cl      1  UNL1       -0.0798
     15 C         142.4421  140.8465  166.9749 C.ar    1  UNL1        0.0512
     16 C         141.4909  141.0239  165.8288 C.ar    1  UNL1        0.1495
     17 O         141.6286  140.1730  164.6012 O.2     1  UNL1       -0.4487
     18 C         141.2182  139.2887  159.6694 C.3     1  UNL1        0.0747
     19 C         142.5760  139.0211  159.0909 C.3     1  UNL1        0.0369
     20 C         142.7137  138.1702  157.8633 C.3     1  UNL1        0.0741
     21 N         141.4937  137.5869  157.2143 N.3     1  UNL1       -0.2688
     22 C         140.1359  137.8544  157.7929 C.3     1  UNL1        0.0741
     23 C         139.9981  138.7053  159.0204 C.3     1  UNL1        0.0369
     24 C         141.6314  136.7359  155.9867 C.3     1  UNL1        0.0992
     25 C         142.0676  135.3061  156.1103 C.ar    1  UNL1       -0.0029
     26 C         141.3756  134.2394  155.3145 C.ar    1  UNL1        0.0004
     27 C         141.8117  132.8096  155.4381 C.ar    1  UNL1        0.0399
     28 C         142.9399  132.4464  156.3576 C.ar    1  UNL1        0.1764
     29 C         143.6319  133.5131  157.1534 C.ar    1  UNL1        0.1762
     30 C         143.1957  134.9430  157.0297 C.ar    1  UNL1        0.0373
     31 O         144.7047  132.8581  157.9721 O.3     1  UNL1       -0.4346
     32 C         144.6757  131.3868  157.6822 C.3     1  UNL1        0.4294
     33 O         143.5851  131.1322  156.6844 O.3     1  UNL1       -0.4346
@<TRIPOS>BOND
     1     1     2    2
     2     2     3   am
     3     3    18    1
     4    18    19    1
     5    19    20    1
     6    20    21    1
     7    21    24    1
     8    24    25    1
     9    25    26   ar
    10    26    27   ar
    11    27    28   ar
    12    28    29   ar
    13    29    30   ar
    14    29    31    1
    15    31    32    1
    16    32    33    1
    17    21    22    1
    18    22    23    1
    19     2     5    1
    20     5     6   ar
    21     6     7   ar
    22     7     8    2
    23     7     9   ar
    24     9    10   ar
    25    10    11   ar
    26    11    12    1
    27    11    13   ar
    28    13    14    1
    29    13    15   ar
    30    15    16   ar
    31    16    17   ar
    32    23    18    1
    33    17     5   ar
    34    30    25   ar
    35    16     9   ar
    36    33    28    1
    37     3     4    1
@<TRIPOS>MOLECULE
*****
 33 37 0 0 0
SMALL
GASTEIGER

@<TRIPOS>ATOM
      1 O         141.5450  141.2663  161.8980 O.2     1  UNL1       -0.2668
      2 C         140.4420  141.8906  162.7003 C.2     1  UNL1        0.2806
      3 N         139.5320  142.9002  162.0659 N.am    1  UNL1       -0.2999
      4 H         138.8081  143.3100  162.5925 H       1  UNL1        0.1498
      5 C         140.2491  141.5053  164.1371 C.ar    1  UNL1        0.2014
      6 C         139.2153  140.4834  164.5073 C.ar    1  UNL1        0.0843
      7 C         139.0224  140.0982  165.9440 C.ar    1  UNL1        0.2019
      8 O         137.9886  139.0763  166.3143 O.2     1  UNL1       -0.2864
      9 C         139.8633  140.7347  167.0107 C.ar    1  UNL1        0.0758
     10 C         139.6704  140.3494  168.4475 C.ar    1  UNL1        0.0367
     11 C         140.5113  140.9859  169.5141 C.ar    1  UNL1        0.1509
     12 F         140.3184  140.6007  170.9508 F       1  UNL1       -0.2033
     13 C         141.5451  142.0078  169.1439 C.ar    1  UNL1        0.0881
     14 CL        142.3861  142.6444  170.2105 Cl      1  UNL1       -0.0798
     15 C         141.7380  142.3931  167.7071 C.ar    1  UNL1        0.0512
     16 C         140.8971  141.7566  166.6405 C.ar    1  UNL1        0.1495
     17 O         141.0900  142.1418  165.2038 O.2     1  UNL1       -0.4487
     18 C         139.7249  143.2856  160.6291 C.3     1  UNL1        0.0747
     19 C         138.8699  142.6643  159.5647 C.3     1  UNL1        0.0369
     20 C         139.0629  143.0497  158.1279 C.3     1  UNL1        0.0741
     21 N         140.1108  144.0563  157.7556 N.3     1  UNL1       -0.2688
     22 C         140.9658  144.6775  158.8200 C.3     1  UNL1        0.0741
     23 C         140.7729  144.2921  160.2568 C.3     1  UNL1        0.0369
     24 C         140.3038  144.4416  156.3188 C.3     1  UNL1        0.0992
     25 C         140.0060  145.8420  155.8714 C.ar    1  UNL1       -0.0029
     26 C         140.3921  146.2866  154.4918 C.ar    1  UNL1        0.0004
     27 C         140.0944  147.6870  154.0444 C.ar    1  UNL1        0.0399
     28 C         139.4106  148.6429  154.9766 C.ar    1  UNL1        0.1764
     29 C         139.0245  148.1982  156.3562 C.ar    1  UNL1        0.1762
     30 C         139.3223  146.7977  156.8036 C.ar    1  UNL1        0.0373
     31 O         138.3663  149.3546  157.0487 O.3     1  UNL1       -0.4346
     32 C         138.3455  150.5138  156.0971 C.3     1  UNL1        0.4294
     33 O         138.9909  150.0740  154.8165 O.3     1  UNL1       -0.4346
@<TRIPOS>BOND
     1     1     2    2
     2     2     3   am
     3     3    18    1
     4    18    19    1
     5    19    20    1
     6    20    21    1
     7    21    24    1
     8    24    25    1
     9    25    26   ar
    10    26    27   ar
    11    27    28   ar
    12    28    29   ar
    13    29    30   ar
    14    29    31    1
    15    31    32    1
    16    32    33    1
    17    21    22    1
    18    22    23    1
    19     2     5    1
    20     5     6   ar
    21     6     7   ar
    22     7     8    2
    23     7     9   ar
    24     9    10   ar
    25    10    11   ar
    26    11    12    1
    27    11    13   ar
    28    13    14    1
    29    13    15   ar
    30    15    16   ar
    31    16    17   ar
    32    23    18    1
    33    17     5   ar
    34    30    25   ar
    35    16     9   ar
    36    33    28    1
    37     3     4    1
