@<TRIPOS>MOLECULE
*****
 44 48 0 0 0
SMALL
GASTEIGER

@<TRIPOS>ATOM
      1 N         140.2582  139.0230  160.6204 N.ar    1  UNL1       -0.2487
      2 N         140.4732  138.4250  159.2616 N.ar    1  UNL1       -0.1691
      3 C         141.9508  138.3658  159.0099 C.ar    1  UNL1        0.1024
      4 C         142.6489  138.9272  160.2130 C.ar    1  UNL1        0.0396
      5 C         141.6028  139.3334  161.2083 C.ar    1  UNL1        0.0797
      6 C         141.8567  139.9429  162.5552 C.ar    1  UNL1        0.0174
      7 C         141.8697  141.4345  162.7130 C.ar    1  UNL1        0.0015
      8 C         142.1236  142.0440  164.0599 C.ar    1  UNL1        0.0000
      9 C         142.3645  141.1618  165.2489 C.ar    1  UNL1       -0.0000
     10 C         142.6184  141.7714  166.5958 C.ar    1  UNL1        0.0039
     11 C         142.8592  140.8892  167.7849 C.ar    1  UNL1        0.0714
     12 C         142.8461  139.3976  167.6270 C.ar    1  UNL1        0.0039
     13 C         142.5922  138.7881  166.2802 C.ar    1  UNL1       -0.0001
     14 C         142.3514  139.6702  165.0911 C.ar    1  UNL1        0.0000
     15 C         142.0975  139.0608  163.7443 C.ar    1  UNL1        0.0015
     16 C         143.1131  141.4987  169.1317 C.3     1  UNL1        0.4186
     17 F         143.3670  142.1082  170.4786 F       1  UNL1       -0.1659
     18 F         143.6263  142.7440  168.4715 F       1  UNL1       -0.1659
     19 F         142.6000  140.2534  169.7920 F       1  UNL1       -0.1659
     20 C         142.6138  137.8379  157.7722 C.ar    1  UNL1        0.0211
     21 C         142.8077  136.3609  157.5971 C.ar    1  UNL1        0.0130
     22 C         143.4708  135.8330  156.3595 C.ar    1  UNL1        0.0586
     23 CL        143.6647  134.3559  156.1844 Cl      1  UNL1       -0.0822
     24 C         143.9399  136.7822  155.2971 C.ar    1  UNL1        0.0228
     25 C         143.7460  138.2593  155.4721 C.ar    1  UNL1        0.0586
     26 CL        144.2152  139.2085  154.4096 Cl      1  UNL1       -0.0822
     27 C         143.0830  138.7871  156.7097 C.ar    1  UNL1        0.0130
     28 C         137.7135  139.5137  160.4356 C.3     1  UNL1        0.0312
     29 C         138.9314  139.2676  161.2760 C.3     1  UNL1        0.1274
     30 C         138.8224  139.2662  162.7720 C.ar    1  UNL1       -0.0001
     31 C         138.9596  137.9807  163.5328 C.ar    1  UNL1       -0.0023
     32 C         138.8506  137.9794  165.0288 C.ar    1  UNL1        0.0042
     33 C         138.6045  139.2635  165.7640 C.ar    1  UNL1        0.0533
     34 C         138.4673  140.5489  165.0032 C.ar    1  UNL1        0.0042
     35 C         138.5763  140.5503  163.5072 C.ar    1  UNL1       -0.0023
     36 C         138.4955  139.2620  167.2601 C.2     1  UNL1        0.2459
     37 O         137.4479  138.4270  167.9349 O.2     1  UNL1       -0.2701
     38 N         139.4340  140.0955  168.0814 N.am    1  UNL1       -0.3005
     39 H         140.1216  140.6436  167.6385 H       1  UNL1        0.1498
     40 C         139.3250  140.0940  169.5774 C.3     1  UNL1        0.0956
     41 C         138.8742  141.3300  170.2978 C.3     1  UNL1        0.0629
     42 C         139.8741  142.3786  170.6860 C.2     1  UNL1        0.0520
     43 O         140.0326  143.6113  169.8462 O.co2   1  UNL1       -0.5491
     44 O         140.7155  142.1945  171.9141 O.co2   1  UNL1       -0.5491
@<TRIPOS>UNITY_ATOM_ATTR
43 1
charge -1
@<TRIPOS>BOND
     1    29    28    1
     2    29    30    1
     3    30    31   ar
     4    31    32   ar
     5    32    33   ar
     6    33    36    1
     7    36    37    2
     8    36    38   am
     9    38    40    1
    10    40    41    1
    11    41    42    1
    12    42    43   ar
    13    42    44   ar
    14    33    34   ar
    15    34    35   ar
    16    29     1    1
    17     1     2   ar
    18     2     3   ar
    19     3    20    1
    20    20    21   ar
    21    21    22   ar
    22    22    23    1
    23    22    24   ar
    24    24    25   ar
    25    25    26    1
    26    25    27   ar
    27     3     4   ar
    28     4     5   ar
    29     5     6    1
    30     6     7   ar
    31     7     8   ar
    32     8     9   ar
    33     9    10   ar
    34    10    11   ar
    35    11    16    1
    36    16    17    1
    37    16    18    1
    38    16    19    1
    39    11    12   ar
    40    12    13   ar
    41    13    14   ar
    42    14    15   ar
    43    35    30   ar
    44     5     1   ar
    45    15     6   ar
    46    27    20   ar
    47    14     9   ar
    48    38    39    1
@<TRIPOS>MOLECULE
*****
 44 48 0 0 0
SMALL
GASTEIGER

@<TRIPOS>ATOM
      1 N         142.5967  143.1318  160.8249 N.ar    1  UNL1       -0.2487
      2 N         142.8498  143.8791  159.5492 N.ar    1  UNL1       -0.1691
      3 C         141.5270  144.1252  158.8860 C.ar    1  UNL1        0.1024
      4 C         140.4565  143.5299  159.7518 C.ar    1  UNL1        0.0396
      5 C         141.1176  142.9160  160.9501 C.ar    1  UNL1        0.0797
      6 C         140.4218  142.2101  162.0761 C.ar    1  UNL1        0.0174
      7 C         139.6680  142.9999  163.1046 C.ar    1  UNL1        0.0015
      8 C         138.9722  142.2941  164.2304 C.ar    1  UNL1        0.0000
      9 C         139.0303  140.7984  164.3278 C.ar    1  UNL1       -0.0000
     10 C         138.3345  140.0925  165.4537 C.ar    1  UNL1        0.0039
     11 C         138.3925  138.5968  165.5511 C.ar    1  UNL1        0.0714
     12 C         139.1464  137.8069  164.5225 C.ar    1  UNL1        0.0039
     13 C         139.8422  138.5128  163.3967 C.ar    1  UNL1       -0.0001
     14 C         139.7841  140.0085  163.2993 C.ar    1  UNL1        0.0000
     15 C         140.4799  140.7144  162.1734 C.ar    1  UNL1        0.0015
     16 C         137.6968  137.8909  166.6770 C.3     1  UNL1        0.4186
     17 F         137.0010  137.1850  167.8029 F       1  UNL1       -0.1659
     18 F         137.5544  139.1940  167.4060 F       1  UNL1       -0.1659
     19 F         137.8392  136.5878  165.9479 F       1  UNL1       -0.1659
     20 C         141.3124  144.8409  157.5853 C.ar    1  UNL1        0.0211
     21 C         142.2042  144.5520  156.4143 C.ar    1  UNL1        0.0130
     22 C         141.9896  145.2677  155.1136 C.ar    1  UNL1        0.0586
     23 CL        142.8814  144.9788  153.9426 Cl      1  UNL1       -0.0822
     24 C         140.8833  146.2722  154.9840 C.ar    1  UNL1        0.0228
     25 C         139.9914  146.5611  156.1550 C.ar    1  UNL1        0.0586
     26 CL        138.8851  147.5657  156.0253 Cl      1  UNL1       -0.0822
     27 C         140.2060  145.8455  157.4556 C.ar    1  UNL1        0.0130
     28 C         145.0559  142.4798  161.3514 C.3     1  UNL1        0.0312
     29 C         143.6397  142.6797  161.8035 C.3     1  UNL1        0.1274
     30 C         143.2665  142.4274  163.2343 C.ar    1  UNL1       -0.0001
     31 C         142.8880  143.5741  164.1241 C.ar    1  UNL1       -0.0023
     32 C         142.5149  143.3217  165.5548 C.ar    1  UNL1        0.0042
     33 C         142.5203  141.9226  166.0957 C.ar    1  UNL1        0.0533
     34 C         142.8988  140.7759  165.2059 C.ar    1  UNL1        0.0042
     35 C         143.2720  141.0283  163.7752 C.ar    1  UNL1       -0.0023
     36 C         142.1471  141.6703  167.5266 C.2     1  UNL1        0.2459
     37 O         142.8489  142.4105  168.6263 O.2     1  UNL1       -0.2701
     38 N         141.0722  140.6778  167.8576 N.am    1  UNL1       -0.3005
     39 H         140.6116  140.1920  167.1358 H       1  UNL1        0.1498
     40 C         140.6991  140.4256  169.2884 C.3     1  UNL1        0.0956
     41 C         139.6639  141.2818  169.9556 C.3     1  UNL1        0.0629
     42 C         140.0862  142.4197  170.8369 C.2     1  UNL1        0.0520
     43 O         139.9384  143.8337  170.3584 O.co2   1  UNL1       -0.5491
     44 O         140.6564  142.1438  172.1966 O.co2   1  UNL1       -0.5491
@<TRIPOS>UNITY_ATOM_ATTR
43 1
charge -1
@<TRIPOS>BOND
     1    29    28    1
     2    29    30    1
     3    30    31   ar
     4    31    32   ar
     5    32    33   ar
     6    33    36    1
     7    36    37    2
     8    36    38   am
     9    38    40    1
    10    40    41    1
    11    41    42    1
    12    42    43   ar
    13    42    44   ar
    14    33    34   ar
    15    34    35   ar
    16    29     1    1
    17     1     2   ar
    18     2     3   ar
    19     3    20    1
    20    20    21   ar
    21    21    22   ar
    22    22    23    1
    23    22    24   ar
    24    24    25   ar
    25    25    26    1
    26    25    27   ar
    27     3     4   ar
    28     4     5   ar
    29     5     6    1
    30     6     7   ar
    31     7     8   ar
    32     8     9   ar
    33     9    10   ar
    34    10    11   ar
    35    11    16    1
    36    16    17    1
    37    16    18    1
    38    16    19    1
    39    11    12   ar
    40    12    13   ar
    41    13    14   ar
    42    14    15   ar
    43    35    30   ar
    44     5     1   ar
    45    15     6   ar
    46    27    20   ar
    47    14     9   ar
    48    38    39    1
@<TRIPOS>MOLECULE
*****
 44 48 0 0 0
SMALL
GASTEIGER

@<TRIPOS>ATOM
      1 N         142.3321  143.2792  159.9162 N.ar    1  UNL1       -0.2487
      2 N         142.3652  144.3080  158.8251 N.ar    1  UNL1       -0.1691
      3 C         140.9808  144.4298  158.2607 C.ar    1  UNL1        0.1024
      4 C         140.0920  143.4763  159.0029 C.ar    1  UNL1        0.0396
      5 C         140.9272  142.7651  160.0261 C.ar    1  UNL1        0.0797
      6 C         140.4425  141.7229  160.9899 C.ar    1  UNL1        0.0174
      7 C         140.4552  140.2751  160.5980 C.ar    1  UNL1        0.0015
      8 C         139.9706  139.2330  161.5619 C.ar    1  UNL1        0.0000
      9 C         139.4733  139.6386  162.9176 C.ar    1  UNL1       -0.0000
     10 C         138.9886  138.5964  163.8815 C.ar    1  UNL1        0.0039
     11 C         138.4913  139.0021  165.2373 C.ar    1  UNL1        0.0714
     12 C         138.4786  140.4500  165.6292 C.ar    1  UNL1        0.0039
     13 C         138.9632  141.4921  164.6653 C.ar    1  UNL1       -0.0001
     14 C         139.4606  141.0864  163.3095 C.ar    1  UNL1        0.0000
     15 C         139.9452  142.1286  162.3457 C.ar    1  UNL1        0.0015
     16 C         138.0067  137.9600  166.2011 C.3     1  UNL1        0.4186
     17 F         137.5220  136.9177  167.1650 F       1  UNL1       -0.1659
     18 F         138.6061  136.8865  165.3419 F       1  UNL1       -0.1659
     19 F         137.4072  139.0334  167.0603 F       1  UNL1       -0.1659
     20 C         140.5591  145.3445  157.1492 C.ar    1  UNL1        0.0211
     21 C         139.7472  146.5687  157.4525 C.ar    1  UNL1        0.0130
     22 C         139.3255  147.4835  156.3410 C.ar    1  UNL1        0.0586
     23 CL        138.5136  148.7077  156.6444 Cl      1  UNL1       -0.0822
     24 C         139.7158  147.1740  154.9262 C.ar    1  UNL1        0.0228
     25 C         140.5278  145.9498  154.6228 C.ar    1  UNL1        0.0586
     26 CL        140.9181  145.6403  153.2079 Cl      1  UNL1       -0.0822
     27 C         140.9494  145.0351  155.7343 C.ar    1  UNL1        0.0130
     28 C         144.8413  142.6353  160.1139 C.3     1  UNL1        0.0312
     29 C         143.4989  142.8413  160.7508 C.3     1  UNL1        0.1274
     30 C         143.3236  142.6093  162.2223 C.ar    1  UNL1       -0.0001
     31 C         143.4759  141.2282  162.7873 C.ar    1  UNL1       -0.0023
     32 C         143.3005  140.9963  164.2588 C.ar    1  UNL1        0.0042
     33 C         142.9728  142.1456  165.1654 C.ar    1  UNL1        0.0533
     34 C         142.8205  143.5267  164.6003 C.ar    1  UNL1        0.0042
     35 C         142.9959  143.7586  163.1288 C.ar    1  UNL1       -0.0023
     36 C         142.7974  141.9136  166.6370 C.2     1  UNL1        0.2459
     37 O         143.5915  142.7182  167.6229 O.2     1  UNL1       -0.2701
     38 N         141.8279  140.8772  167.1226 N.am    1  UNL1       -0.3005
     39 H         141.3066  140.3491  166.4755 H       1  UNL1        0.1498
     40 C         141.6526  140.6453  168.5942 C.3     1  UNL1        0.0956
     41 C         140.6471  141.4480  169.3654 C.3     1  UNL1        0.0629
     42 C         140.3041  141.0659  170.7747 C.2     1  UNL1        0.0520
     43 O         140.5732  142.0231  171.8978 O.co2   1  UNL1       -0.5491
     44 O         139.6920  139.7267  171.0610 O.co2   1  UNL1       -0.5491
@<TRIPOS>UNITY_ATOM_ATTR
43 1
charge -1
@<TRIPOS>BOND
     1    29    28    1
     2    29    30    1
     3    30    31   ar
     4    31    32   ar
     5    32    33   ar
     6    33    36    1
     7    36    37    2
     8    36    38   am
     9    38    40    1
    10    40    41    1
    11    41    42    1
    12    42    43   ar
    13    42    44   ar
    14    33    34   ar
    15    34    35   ar
    16    29     1    1
    17     1     2   ar
    18     2     3   ar
    19     3    20    1
    20    20    21   ar
    21    21    22   ar
    22    22    23    1
    23    22    24   ar
    24    24    25   ar
    25    25    26    1
    26    25    27   ar
    27     3     4   ar
    28     4     5   ar
    29     5     6    1
    30     6     7   ar
    31     7     8   ar
    32     8     9   ar
    33     9    10   ar
    34    10    11   ar
    35    11    16    1
    36    16    17    1
    37    16    18    1
    38    16    19    1
    39    11    12   ar
    40    12    13   ar
    41    13    14   ar
    42    14    15   ar
    43    35    30   ar
    44     5     1   ar
    45    15     6   ar
    46    27    20   ar
    47    14     9   ar
    48    38    39    1
@<TRIPOS>MOLECULE
*****
 44 48 0 0 0
SMALL
GASTEIGER

@<TRIPOS>ATOM
      1 N         142.7291  140.0024  159.5230 N.ar    1  UNL1       -0.2487
      2 N         143.0013  139.4469  158.1565 N.ar    1  UNL1       -0.1691
      3 C         142.6890  137.9799  158.1819 C.ar    1  UNL1        0.1024
      4 C         142.2237  137.6289  159.5640 C.ar    1  UNL1        0.0396
      5 C         142.2485  138.8788  160.3929 C.ar    1  UNL1        0.0797
      6 C         141.8608  138.9864  161.8380 C.ar    1  UNL1        0.0174
      7 C         142.8577  138.6551  162.9086 C.ar    1  UNL1        0.0015
      8 C         142.4699  138.7627  164.3536 C.ar    1  UNL1        0.0000
      9 C         141.0852  139.2015  164.7279 C.ar    1  UNL1       -0.0000
     10 C         140.6975  139.3091  166.1730 C.ar    1  UNL1        0.0039
     11 C         139.3129  139.7479  166.5473 C.ar    1  UNL1        0.0714
     12 C         138.3159  140.0792  165.4766 C.ar    1  UNL1        0.0039
     13 C         138.7037  139.9717  164.0316 C.ar    1  UNL1       -0.0001
     14 C         140.0883  139.5328  163.6573 C.ar    1  UNL1        0.0000
     15 C         140.4761  139.4252  162.2123 C.ar    1  UNL1        0.0015
     16 C         138.9251  139.8555  167.9923 C.3     1  UNL1        0.4186
     17 F         138.5374  139.9631  169.4374 F       1  UNL1       -0.1659
     18 F         139.9746  140.9077  168.1956 F       1  UNL1       -0.1659
     19 F         137.8756  138.8033  167.7890 F       1  UNL1       -0.1659
     20 C         142.8191  137.0307  157.0278 C.ar    1  UNL1        0.0211
     21 C         142.4357  137.4724  155.6465 C.ar    1  UNL1        0.0130
     22 C         142.5658  136.5231  154.4924 C.ar    1  UNL1        0.0586
     23 CL        142.1824  136.9648  153.1111 Cl      1  UNL1       -0.0822
     24 C         143.0793  135.1323  154.7195 C.ar    1  UNL1        0.0228
     25 C         143.4627  134.6905  156.1008 C.ar    1  UNL1        0.0586
     26 CL        143.9762  133.2996  156.3279 Cl      1  UNL1       -0.0822
     27 C         143.3326  135.6397  157.2548 C.ar    1  UNL1        0.0130
     28 C         142.8385  142.5284  158.9254 C.3     1  UNL1        0.0312
     29 C         142.9063  141.4307  159.9454 C.3     1  UNL1        0.1274
     30 C         143.1513  141.7614  161.3878 C.ar    1  UNL1       -0.0001
     31 C         142.0479  142.3414  162.2222 C.ar    1  UNL1       -0.0023
     32 C         142.2930  142.6721  163.6646 C.ar    1  UNL1        0.0042
     33 C         143.6414  142.4228  164.2726 C.ar    1  UNL1        0.0533
     34 C         144.7448  141.8428  163.4382 C.ar    1  UNL1        0.0042
     35 C         144.4997  141.5121  161.9958 C.ar    1  UNL1       -0.0023
     36 C         143.8864  142.7536  165.7151 C.2     1  UNL1        0.2459
     37 O         144.8750  143.8203  166.0825 O.2     1  UNL1       -0.2701
     38 N         143.1430  142.0176  166.7901 N.am    1  UNL1       -0.3005
     39 H         142.4942  141.3175  166.5490 H       1  UNL1        0.1498
     40 C         143.3880  142.3485  168.2325 C.3     1  UNL1        0.0956
     41 C         142.8974  141.4247  169.3076 C.3     1  UNL1        0.0629
     42 C         142.2414  141.9840  170.5352 C.2     1  UNL1        0.0520
     43 O         141.5672  141.0647  171.5101 O.co2   1  UNL1       -0.5491
     44 O         142.2597  143.4624  170.7880 O.co2   1  UNL1       -0.5491
@<TRIPOS>UNITY_ATOM_ATTR
43 1
charge -1
@<TRIPOS>BOND
     1    29    28    1
     2    29    30    1
     3    30    31   ar
     4    31    32   ar
     5    32    33   ar
     6    33    36    1
     7    36    37    2
     8    36    38   am
     9    38    40    1
    10    40    41    1
    11    41    42    1
    12    42    43   ar
    13    42    44   ar
    14    33    34   ar
    15    34    35   ar
    16    29     1    1
    17     1     2   ar
    18     2     3   ar
    19     3    20    1
    20    20    21   ar
    21    21    22   ar
    22    22    23    1
    23    22    24   ar
    24    24    25   ar
    25    25    26    1
    26    25    27   ar
    27     3     4   ar
    28     4     5   ar
    29     5     6    1
    30     6     7   ar
    31     7     8   ar
    32     8     9   ar
    33     9    10   ar
    34    10    11   ar
    35    11    16    1
    36    16    17    1
    37    16    18    1
    38    16    19    1
    39    11    12   ar
    40    12    13   ar
    41    13    14   ar
    42    14    15   ar
    43    35    30   ar
    44     5     1   ar
    45    15     6   ar
    46    27    20   ar
    47    14     9   ar
    48    38    39    1
@<TRIPOS>MOLECULE
*****
 44 48 0 0 0
SMALL
GASTEIGER

@<TRIPOS>ATOM
      1 N         140.8744  138.1350  157.1176 N.ar    1  UNL1       -0.2487
      2 N         140.9817  136.7991  156.4441 N.ar    1  UNL1       -0.1691
      3 C         142.2749  136.1686  156.8684 C.ar    1  UNL1        0.1024
      4 C         142.9669  137.1149  157.8042 C.ar    1  UNL1        0.0396
      5 C         142.1013  138.3302  157.9582 C.ar    1  UNL1        0.0797
      6 C         142.4087  139.5301  158.8043 C.ar    1  UNL1        0.0174
      7 C         143.0853  140.7229  158.1966 C.ar    1  UNL1        0.0015
      8 C         143.3926  141.9228  159.0427 C.ar    1  UNL1        0.0000
      9 C         143.0234  141.9298  160.4965 C.ar    1  UNL1       -0.0000
     10 C         143.3308  143.1297  161.3426 C.ar    1  UNL1        0.0039
     11 C         142.9615  143.1367  162.7964 C.ar    1  UNL1        0.0714
     12 C         142.2849  141.9438  163.4041 C.ar    1  UNL1        0.0039
     13 C         141.9776  140.7440  162.5581 C.ar    1  UNL1       -0.0001
     14 C         142.3468  140.7370  161.1042 C.ar    1  UNL1        0.0000
     15 C         142.0395  139.5371  160.2581 C.ar    1  UNL1        0.0015
     16 C         143.2689  144.3365  163.6425 C.3     1  UNL1        0.4186
     17 F         143.5763  145.5365  164.4886 F       1  UNL1       -0.1659
     18 F         144.1611  144.8704  162.5613 F       1  UNL1       -0.1659
     19 F         142.3767  143.8027  164.7237 F       1  UNL1       -0.1659
     20 C         142.7864  134.8272  156.4333 C.ar    1  UNL1        0.0211
     21 C         142.3891  134.2699  155.0986 C.ar    1  UNL1        0.0130
     22 C         142.9005  132.9286  154.6635 C.ar    1  UNL1        0.0586
     23 CL        142.5032  132.3713  153.3288 Cl      1  UNL1       -0.0822
     24 C         143.8093  132.1447  155.5632 C.ar    1  UNL1        0.0228
     25 C         144.2066  132.7020  156.8980 C.ar    1  UNL1        0.0586
     26 CL        145.1154  131.9179  157.7977 Cl      1  UNL1       -0.0822
     27 C         143.6952  134.0432  157.3330 C.ar    1  UNL1        0.0130
     28 C         138.9736  139.1805  155.6879 C.3     1  UNL1        0.0312
     29 C         139.7395  139.1054  156.9755 C.3     1  UNL1        0.1274
     30 C         139.3704  140.0009  158.1209 C.ar    1  UNL1       -0.0001
     31 C         138.7913  139.4151  159.3745 C.ar    1  UNL1       -0.0023
     32 C         138.4222  140.3106  160.5198 C.ar    1  UNL1        0.0042
     33 C         138.6322  141.7918  160.4116 C.ar    1  UNL1        0.0533
     34 C         139.2113  142.3776  159.1580 C.ar    1  UNL1        0.0042
     35 C         139.5804  141.4821  158.0127 C.ar    1  UNL1       -0.0023
     36 C         138.2630  142.6873  161.5571 C.2     1  UNL1        0.2459
     37 O         137.2872  142.2151  162.5937 O.2     1  UNL1       -0.2701
     38 N         138.8697  144.0548  161.6658 N.am    1  UNL1       -0.3005
     39 H         139.5102  144.3647  160.9854 H       1  UNL1        0.1498
     40 C         138.5005  144.9501  162.8113 C.3     1  UNL1        0.0956
     41 C         139.4195  145.0776  163.9899 C.3     1  UNL1        0.0629
     42 C         138.9885  144.5730  165.3351 C.2     1  UNL1        0.0520
     43 O         138.2109  145.4650  166.2568 O.co2   1  UNL1       -0.5491
     44 O         139.3352  143.1764  165.7585 O.co2   1  UNL1       -0.5491
@<TRIPOS>UNITY_ATOM_ATTR
43 1
charge -1
@<TRIPOS>BOND
     1    29    28    1
     2    29    30    1
     3    30    31   ar
     4    31    32   ar
     5    32    33   ar
     6    33    36    1
     7    36    37    2
     8    36    38   am
     9    38    40    1
    10    40    41    1
    11    41    42    1
    12    42    43   ar
    13    42    44   ar
    14    33    34   ar
    15    34    35   ar
    16    29     1    1
    17     1     2   ar
    18     2     3   ar
    19     3    20    1
    20    20    21   ar
    21    21    22   ar
    22    22    23    1
    23    22    24   ar
    24    24    25   ar
    25    25    26    1
    26    25    27   ar
    27     3     4   ar
    28     4     5   ar
    29     5     6    1
    30     6     7   ar
    31     7     8   ar
    32     8     9   ar
    33     9    10   ar
    34    10    11   ar
    35    11    16    1
    36    16    17    1
    37    16    18    1
    38    16    19    1
    39    11    12   ar
    40    12    13   ar
    41    13    14   ar
    42    14    15   ar
    43    35    30   ar
    44     5     1   ar
    45    15     6   ar
    46    27    20   ar
    47    14     9   ar
    48    38    39    1
@<TRIPOS>MOLECULE
*****
 44 48 0 0 0
SMALL
GASTEIGER

@<TRIPOS>ATOM
      1 N         139.9403  138.9612  158.8251 N.ar    1  UNL1       -0.2487
      2 N         139.8336  137.8489  157.8244 N.ar    1  UNL1       -0.1691
      3 C         141.2071  137.5755  157.2870 C.ar    1  UNL1        0.1024
      4 C         142.1627  138.5188  157.9555 C.ar    1  UNL1        0.0396
      5 C         141.3798  139.3752  158.9061 C.ar    1  UNL1        0.0797
      6 C         141.9383  140.4560  159.7837 C.ar    1  UNL1        0.0174
      7 C         142.3630  141.7640  159.1846 C.ar    1  UNL1        0.0015
      8 C         142.9214  142.8446  160.0622 C.ar    1  UNL1        0.0000
      9 C         143.0552  142.6174  161.5389 C.ar    1  UNL1       -0.0000
     10 C         143.6137  143.6982  162.4164 C.ar    1  UNL1        0.0039
     11 C         143.7475  143.4709  163.8931 C.ar    1  UNL1        0.0714
     12 C         143.3228  142.1629  164.4921 C.ar    1  UNL1        0.0039
     13 C         142.7643  141.0822  163.6146 C.ar    1  UNL1       -0.0001
     14 C         142.6305  141.3095  162.1379 C.ar    1  UNL1        0.0000
     15 C         142.0721  140.2288  161.2603 C.ar    1  UNL1        0.0015
     16 C         144.3059  144.5516  164.7707 C.3     1  UNL1        0.4186
     17 F         144.8644  145.6324  165.6483 F       1  UNL1       -0.1659
     18 F         143.5096  145.5752  164.0170 F       1  UNL1       -0.1659
     19 F         145.1023  143.5281  165.5243 F       1  UNL1       -0.1659
     20 C         141.5626  136.5404  156.2611 C.ar    1  UNL1        0.0211
     21 C         142.6040  135.5058  156.5693 C.ar    1  UNL1        0.0130
     22 C         142.9595  134.4708  155.5434 C.ar    1  UNL1        0.0586
     23 CL        144.0009  133.4361  155.8515 Cl      1  UNL1       -0.0822
     24 C         142.2735  134.4704  154.2095 C.ar    1  UNL1        0.0228
     25 C         141.2320  135.5051  153.9013 C.ar    1  UNL1        0.0586
     26 CL        140.5461  135.5047  152.5674 Cl      1  UNL1       -0.0822
     27 C         140.8767  136.5400  154.9272 C.ar    1  UNL1        0.0130
     28 C         137.7247  140.3159  158.8999 C.3     1  UNL1        0.0312
     29 C         138.8067  139.5551  159.6074 C.3     1  UNL1        0.1274
     30 C         138.7549  139.3884  161.0971 C.ar    1  UNL1       -0.0001
     31 C         138.4428  140.5652  161.9732 C.ar    1  UNL1       -0.0023
     32 C         138.3910  140.3984  163.4630 C.ar    1  UNL1        0.0042
     33 C         138.6514  139.0547  164.0767 C.ar    1  UNL1        0.0533
     34 C         138.9636  137.8778  163.2006 C.ar    1  UNL1        0.0042
     35 C         139.0153  138.0447  161.7108 C.ar    1  UNL1       -0.0023
     36 C         138.5997  138.8879  165.5666 C.2     1  UNL1        0.2459
     37 O         137.9839  137.6567  166.1624 O.2     1  UNL1       -0.2701
     38 N         139.1636  139.9522  166.4605 N.am    1  UNL1       -0.3005
     39 H         139.5678  140.7603  166.0694 H       1  UNL1        0.1498
     40 C         139.1118  139.7854  167.9503 C.3     1  UNL1        0.0956
     41 C         139.9825  140.6322  168.8305 C.3     1  UNL1        0.0629
     42 C         139.7046  140.7168  170.3021 C.2     1  UNL1        0.0520
     43 O         139.7341  142.0466  170.9956 O.co2   1  UNL1       -0.5491
     44 O         139.3971  139.4718  171.0802 O.co2   1  UNL1       -0.5491
@<TRIPOS>UNITY_ATOM_ATTR
43 1
charge -1
@<TRIPOS>BOND
     1    29    28    1
     2    29    30    1
     3    30    31   ar
     4    31    32   ar
     5    32    33   ar
     6    33    36    1
     7    36    37    2
     8    36    38   am
     9    38    40    1
    10    40    41    1
    11    41    42    1
    12    42    43   ar
    13    42    44   ar
    14    33    34   ar
    15    34    35   ar
    16    29     1    1
    17     1     2   ar
    18     2     3   ar
    19     3    20    1
    20    20    21   ar
    21    21    22   ar
    22    22    23    1
    23    22    24   ar
    24    24    25   ar
    25    25    26    1
    26    25    27   ar
    27     3     4   ar
    28     4     5   ar
    29     5     6    1
    30     6     7   ar
    31     7     8   ar
    32     8     9   ar
    33     9    10   ar
    34    10    11   ar
    35    11    16    1
    36    16    17    1
    37    16    18    1
    38    16    19    1
    39    11    12   ar
    40    12    13   ar
    41    13    14   ar
    42    14    15   ar
    43    35    30   ar
    44     5     1   ar
    45    15     6   ar
    46    27    20   ar
    47    14     9   ar
    48    38    39    1
@<TRIPOS>MOLECULE
*****
 44 48 0 0 0
SMALL
GASTEIGER

@<TRIPOS>ATOM
      1 N         141.9442  143.0996  160.2629 N.ar    1  UNL1       -0.2487
      2 N         142.0727  143.8085  158.9472 N.ar    1  UNL1       -0.1691
      3 C         140.6980  143.9607  158.3666 C.ar    1  UNL1        0.1024
      4 C         139.7200  143.3460  159.3234 C.ar    1  UNL1        0.0396
      5 C         140.4901  142.8138  160.4954 C.ar    1  UNL1        0.0797
      6 C         139.9084  142.1179  161.6901 C.ar    1  UNL1        0.0174
      7 C         139.1437  142.9011  162.7156 C.ar    1  UNL1        0.0015
      8 C         138.5620  142.2052  163.9103 C.ar    1  UNL1        0.0000
      9 C         138.7451  140.7261  164.0795 C.ar    1  UNL1       -0.0000
     10 C         138.1633  140.0302  165.2743 C.ar    1  UNL1        0.0039
     11 C         138.3464  138.5510  165.4435 C.ar    1  UNL1        0.0714
     12 C         139.1112  137.7678  164.4180 C.ar    1  UNL1        0.0039
     13 C         139.6929  138.4637  163.2233 C.ar    1  UNL1       -0.0001
     14 C         139.5098  139.9428  163.0541 C.ar    1  UNL1        0.0000
     15 C         140.0915  140.6387  161.8594 C.ar    1  UNL1        0.0015
     16 C         137.7647  137.8551  166.6382 C.3     1  UNL1        0.4186
     17 F         137.1830  137.1592  167.8330 F       1  UNL1       -0.1659
     18 F         137.6340  139.1731  167.3423 F       1  UNL1       -0.1659
     19 F         137.8955  136.5371  165.9341 F       1  UNL1       -0.1659
     20 C         140.3606  144.6132  157.0587 C.ar    1  UNL1        0.0211
     21 C         139.9302  146.0497  157.0262 C.ar    1  UNL1        0.0130
     22 C         139.5928  146.7022  155.7184 C.ar    1  UNL1        0.0586
     23 CL        139.1624  148.1388  155.6859 Cl      1  UNL1       -0.0822
     24 C         139.6859  145.9181  154.4431 C.ar    1  UNL1        0.0228
     25 C         140.1163  144.4815  154.4755 C.ar    1  UNL1        0.0586
     26 CL        140.2094  143.6975  153.2002 Cl      1  UNL1       -0.0822
     27 C         140.4537  143.8292  155.7833 C.ar    1  UNL1        0.0130
     28 C         144.4348  142.4553  160.6262 C.3     1  UNL1        0.0312
     29 C         143.0718  142.7397  161.1843 C.3     1  UNL1        0.1274
     30 C         142.8365  142.6643  162.6638 C.ar    1  UNL1       -0.0001
     31 C         143.0016  141.3588  163.3838 C.ar    1  UNL1       -0.0023
     32 C         142.7663  141.2834  164.8633 C.ar    1  UNL1        0.0042
     33 C         142.3660  142.5135  165.6228 C.ar    1  UNL1        0.0533
     34 C         142.2009  143.8189  164.9027 C.ar    1  UNL1        0.0042
     35 C         142.4362  143.8943  163.4232 C.ar    1  UNL1       -0.0023
     36 C         142.1307  142.4380  167.1023 C.2     1  UNL1        0.2459
     37 O         140.7670  142.7193  167.6601 O.2     1  UNL1       -0.2701
     38 N         143.2590  142.0811  168.0240 N.am    1  UNL1       -0.3005
     39 H         144.1541  141.8965  167.6579 H       1  UNL1        0.1498
     40 C         143.0236  142.0057  169.5035 C.3     1  UNL1        0.0956
     41 C         142.4129  140.7742  170.1039 C.3     1  UNL1        0.0629
     42 C         142.4269  139.4822  169.3420 C.2     1  UNL1        0.0520
     43 O         141.7598  139.3949  168.0014 O.co2   1  UNL1       -0.5491
     44 O         143.1080  138.2776  169.9207 O.co2   1  UNL1       -0.5491
@<TRIPOS>UNITY_ATOM_ATTR
43 1
charge -1
@<TRIPOS>BOND
     1    29    28    1
     2    29    30    1
     3    30    31   ar
     4    31    32   ar
     5    32    33   ar
     6    33    36    1
     7    36    37    2
     8    36    38   am
     9    38    40    1
    10    40    41    1
    11    41    42    1
    12    42    43   ar
    13    42    44   ar
    14    33    34   ar
    15    34    35   ar
    16    29     1    1
    17     1     2   ar
    18     2     3   ar
    19     3    20    1
    20    20    21   ar
    21    21    22   ar
    22    22    23    1
    23    22    24   ar
    24    24    25   ar
    25    25    26    1
    26    25    27   ar
    27     3     4   ar
    28     4     5   ar
    29     5     6    1
    30     6     7   ar
    31     7     8   ar
    32     8     9   ar
    33     9    10   ar
    34    10    11   ar
    35    11    16    1
    36    16    17    1
    37    16    18    1
    38    16    19    1
    39    11    12   ar
    40    12    13   ar
    41    13    14   ar
    42    14    15   ar
    43    35    30   ar
    44     5     1   ar
    45    15     6   ar
    46    27    20   ar
    47    14     9   ar
    48    38    39    1
@<TRIPOS>MOLECULE
*****
 44 48 0 0 0
SMALL
GASTEIGER

@<TRIPOS>ATOM
      1 N         143.9164  140.2854  157.9985 N.ar    1  UNL1       -0.2487
      2 N         144.9838  140.2557  156.9450 N.ar    1  UNL1       -0.1691
      3 C         145.4235  141.6671  156.6908 C.ar    1  UNL1        0.1024
      4 C         144.6279  142.5691  157.5871 C.ar    1  UNL1        0.0396
      5 C         143.6964  141.7152  158.3953 C.ar    1  UNL1        0.0797
      6 C         142.7169  142.2050  159.4203 C.ar    1  UNL1        0.0174
      7 C         141.2671  142.3493  159.0635 C.ar    1  UNL1        0.0015
      8 C         140.2877  142.8391  160.0886 C.ar    1  UNL1        0.0000
      9 C         140.7580  143.1846  161.4704 C.ar    1  UNL1       -0.0000
     10 C         139.7785  143.6744  162.4955 C.ar    1  UNL1        0.0039
     11 C         140.2488  144.0198  163.8773 C.ar    1  UNL1        0.0714
     12 C         141.6987  143.8755  164.2341 C.ar    1  UNL1        0.0039
     13 C         142.6781  143.3857  163.2090 C.ar    1  UNL1       -0.0001
     14 C         142.2078  143.0402  161.8272 C.ar    1  UNL1        0.0000
     15 C         143.1872  142.5504  160.8022 C.ar    1  UNL1        0.0015
     16 C         139.2694  144.5096  164.9024 C.3     1  UNL1        0.4186
     17 F         138.2899  144.9995  165.9275 F       1  UNL1       -0.1659
     18 F         138.4594  145.1575  163.8189 F       1  UNL1       -0.1659
     19 F         140.0794  143.8618  165.9859 F       1  UNL1       -0.1659
     20 C         146.4744  142.1004  155.7120 C.ar    1  UNL1        0.0211
     21 C         147.8716  141.5670  155.8266 C.ar    1  UNL1        0.0130
     22 C         148.9225  142.0003  154.8479 C.ar    1  UNL1        0.0586
     23 CL        150.3197  141.4668  154.9625 Cl      1  UNL1       -0.0822
     24 C         148.5761  142.9671  153.7546 C.ar    1  UNL1        0.0228
     25 C         147.1789  143.5006  153.6400 C.ar    1  UNL1        0.0586
     26 CL        146.8325  144.4674  152.5467 Cl      1  UNL1       -0.0822
     27 C         146.1281  143.0673  154.6187 C.ar    1  UNL1        0.0130
     28 C         142.7121  138.0117  157.6384 C.3     1  UNL1        0.0312
     29 C         143.1955  139.0945  158.5570 C.3     1  UNL1        0.1274
     30 C         142.9581  138.9863  160.0341 C.ar    1  UNL1       -0.0001
     31 C         141.5571  138.9184  160.5656 C.ar    1  UNL1       -0.0023
     32 C         141.3197  138.8102  162.0427 C.ar    1  UNL1        0.0042
     33 C         142.4834  138.7699  162.9884 C.ar    1  UNL1        0.0533
     34 C         143.8844  138.8378  162.4569 C.ar    1  UNL1        0.0042
     35 C         144.1218  138.9460  160.9798 C.ar    1  UNL1       -0.0023
     36 C         142.2459  138.6617  164.4656 C.2     1  UNL1        0.2459
     37 O         140.9662  138.0702  164.9780 O.2     1  UNL1       -0.2701
     38 N         143.2880  139.1449  165.4302 N.am    1  UNL1       -0.3005
     39 H         144.1279  139.5331  165.0938 H       1  UNL1        0.1498
     40 C         143.0504  139.0367  166.9073 C.3     1  UNL1        0.0956
     41 C         142.2293  140.0749  167.6129 C.3     1  UNL1        0.0629
     42 C         142.7209  141.4895  167.6980 C.2     1  UNL1        0.0520
     43 O         143.4322  142.1077  166.5310 O.co2   1  UNL1       -0.5491
     44 O         142.5013  142.2858  168.9500 O.co2   1  UNL1       -0.5491
@<TRIPOS>UNITY_ATOM_ATTR
43 1
charge -1
@<TRIPOS>BOND
     1    29    28    1
     2    29    30    1
     3    30    31   ar
     4    31    32   ar
     5    32    33   ar
     6    33    36    1
     7    36    37    2
     8    36    38   am
     9    38    40    1
    10    40    41    1
    11    41    42    1
    12    42    43   ar
    13    42    44   ar
    14    33    34   ar
    15    34    35   ar
    16    29     1    1
    17     1     2   ar
    18     2     3   ar
    19     3    20    1
    20    20    21   ar
    21    21    22   ar
    22    22    23    1
    23    22    24   ar
    24    24    25   ar
    25    25    26    1
    26    25    27   ar
    27     3     4   ar
    28     4     5   ar
    29     5     6    1
    30     6     7   ar
    31     7     8   ar
    32     8     9   ar
    33     9    10   ar
    34    10    11   ar
    35    11    16    1
    36    16    17    1
    37    16    18    1
    38    16    19    1
    39    11    12   ar
    40    12    13   ar
    41    13    14   ar
    42    14    15   ar
    43    35    30   ar
    44     5     1   ar
    45    15     6   ar
    46    27    20   ar
    47    14     9   ar
    48    38    39    1
@<TRIPOS>MOLECULE
*****
 44 48 0 0 0
SMALL
GASTEIGER

@<TRIPOS>ATOM
      1 N         139.9798  138.8468  158.7928 N.ar    1  UNL1       -0.2487
      2 N         139.8046  138.0192  157.5542 N.ar    1  UNL1       -0.1691
      3 C         141.1615  137.5631  157.1058 C.ar    1  UNL1        0.1024
      4 C         142.1752  138.1089  158.0673 C.ar    1  UNL1        0.0396
      5 C         141.4448  138.9022  159.1100 C.ar    1  UNL1        0.0797
      6 C         142.0698  139.6243  160.2668 C.ar    1  UNL1        0.0174
      7 C         142.6845  138.8468  161.3926 C.ar    1  UNL1        0.0015
      8 C         143.3094  139.5688  162.5493 C.ar    1  UNL1        0.0000
      9 C         143.3196  141.0685  162.5802 C.ar    1  UNL1       -0.0000
     10 C         143.9446  141.7906  163.7370 C.ar    1  UNL1        0.0039
     11 C         143.9549  143.2902  163.7679 C.ar    1  UNL1        0.0714
     12 C         143.3401  144.0678  162.6420 C.ar    1  UNL1        0.0039
     13 C         142.7152  143.3457  161.4853 C.ar    1  UNL1       -0.0001
     14 C         142.7050  141.8461  161.4544 C.ar    1  UNL1        0.0000
     15 C         142.0800  141.1240  160.2977 C.ar    1  UNL1        0.0015
     16 C         144.5798  144.0123  164.9246 C.3     1  UNL1        0.4186
     17 F         145.2047  144.7345  166.0813 F       1  UNL1       -0.1659
     18 F         144.0530  145.3137  164.3968 F       1  UNL1       -0.1659
     19 F         145.1066  142.7108  165.4524 F       1  UNL1       -0.1659
     20 C         141.4534  136.7109  155.9063 C.ar    1  UNL1        0.0211
     21 C         141.4643  137.3223  154.5366 C.ar    1  UNL1        0.0130
     22 C         141.7562  136.4700  153.3372 C.ar    1  UNL1        0.0586
     23 CL        141.7671  137.0814  151.9675 Cl      1  UNL1       -0.0822
     24 C         142.0372  135.0066  153.5076 C.ar    1  UNL1        0.0228
     25 C         142.0263  134.3951  154.8774 C.ar    1  UNL1        0.0586
     26 CL        142.3074  132.9316  155.0477 Cl      1  UNL1       -0.0822
     27 C         141.7344  135.2474  156.0766 C.ar    1  UNL1        0.0130
     28 C         137.8079  140.2708  158.8649 C.3     1  UNL1        0.0312
     29 C         138.8825  139.5036  159.5767 C.3     1  UNL1        0.1274
     30 C         138.8597  139.3933  161.0725 C.ar    1  UNL1       -0.0001
     31 C         138.8997  140.6325  161.9167 C.ar    1  UNL1       -0.0023
     32 C         138.8769  140.5221  163.4124 C.ar    1  UNL1        0.0042
     33 C         138.8141  139.1725  164.0640 C.ar    1  UNL1        0.0533
     34 C         138.7740  137.9332  163.2198 C.ar    1  UNL1        0.0042
     35 C         138.7968  138.0437  161.7240 C.ar    1  UNL1       -0.0023
     36 C         138.7913  139.0622  165.5598 C.2     1  UNL1        0.2459
     37 O         138.2654  137.8180  166.2120 O.2     1  UNL1       -0.2701
     38 N         139.2943  140.1960  166.4033 N.am    1  UNL1       -0.3005
     39 H         139.6394  141.0126  165.9752 H       1  UNL1        0.1498
     40 C         139.2714  140.0856  167.8990 C.3     1  UNL1        0.0956
     41 C         140.5571  139.9617  168.6616 C.3     1  UNL1        0.0629
     42 C         141.8650  139.9363  167.9277 C.2     1  UNL1        0.0520
     43 O         142.9548  139.0049  168.3693 O.co2   1  UNL1       -0.5491
     44 O         142.0833  140.8421  166.7522 O.co2   1  UNL1       -0.5491
@<TRIPOS>UNITY_ATOM_ATTR
43 1
charge -1
@<TRIPOS>BOND
     1    29    28    1
     2    29    30    1
     3    30    31   ar
     4    31    32   ar
     5    32    33   ar
     6    33    36    1
     7    36    37    2
     8    36    38   am
     9    38    40    1
    10    40    41    1
    11    41    42    1
    12    42    43   ar
    13    42    44   ar
    14    33    34   ar
    15    34    35   ar
    16    29     1    1
    17     1     2   ar
    18     2     3   ar
    19     3    20    1
    20    20    21   ar
    21    21    22   ar
    22    22    23    1
    23    22    24   ar
    24    24    25   ar
    25    25    26    1
    26    25    27   ar
    27     3     4   ar
    28     4     5   ar
    29     5     6    1
    30     6     7   ar
    31     7     8   ar
    32     8     9   ar
    33     9    10   ar
    34    10    11   ar
    35    11    16    1
    36    16    17    1
    37    16    18    1
    38    16    19    1
    39    11    12   ar
    40    12    13   ar
    41    13    14   ar
    42    14    15   ar
    43    35    30   ar
    44     5     1   ar
    45    15     6   ar
    46    27    20   ar
    47    14     9   ar
    48    38    39    1
