@<TRIPOS>MOLECULE
*****
 27 30 0 0 0
SMALL
GASTEIGER

@<TRIPOS>ATOM
      1 N         139.4992  138.8747  164.5048 N.am    1  UNL1       -0.2414
      2 C         140.0593  137.7048  163.7513 C.3     1  UNL1        0.1212
      3 C         139.3881  137.6524  162.4108 C.3     1  UNL1        0.1169
      4 N         138.4132  138.7900  162.3359 N.am    1  UNL1       -0.2606
      5 C         138.4819  139.5454  163.6300 C.2     1  UNL1        0.3111
      6 O         137.6749  140.7584  163.9867 O.2     1  UNL1       -0.2520
      7 C         140.6664  140.1485  168.6598 C.ar    1  UNL1       -0.0227
      8 C         139.2294  139.8622  168.3390 C.ar    1  UNL1       -0.0030
      9 C         138.8403  139.4375  166.9540 C.ar    1  UNL1        0.0146
     10 C         139.8883  139.2993  165.8898 C.ar    1  UNL1        0.0553
     11 C         141.3253  139.5857  166.2105 C.ar    1  UNL1        0.0146
     12 C         141.7144  140.0103  167.5956 C.ar    1  UNL1       -0.0030
     13 C         139.9760  141.6145  170.0288 C.3     1  UNL1        0.0044
     14 C         141.0555  140.5732  170.0449 C.3     1  UNL1        0.0189
     15 C         142.1350  139.5318  170.0609 C.3     1  UNL1        0.0044
     16 C         141.4446  140.9977  171.4300 C.3     1  UNL1        0.0044
     17 C         137.5255  139.1151  161.1713 C.3     1  UNL1        0.1123
     18 C         137.8829  140.2411  160.2471 C.3     1  UNL1        0.0944
     19 N         138.6956  141.3965  160.7519 N.3     1  UNL1       -0.2637
     20 C         138.1541  142.6981  161.2644 C.3     1  UNL1        0.0992
     21 C         139.3162  143.5592  161.6620 C.ar    1  UNL1       -0.0088
     22 C         139.3901  144.9444  162.2325 C.ar    1  UNL1       -0.0032
     23 C         140.7236  145.5603  162.5363 C.ar    1  UNL1       -0.0003
     24 C         141.9833  144.7908  162.2695 C.ar    1  UNL1       -0.0003
     25 C         141.9095  143.4056  161.6990 C.ar    1  UNL1       -0.0032
     26 C         140.5759  142.7897  161.3953 C.ar    1  UNL1       -0.0088
     27 C         140.1923  141.4531  160.8328 C.3     1  UNL1        0.0992
@<TRIPOS>BOND
     1    13    14    1
     2    14    15    1
     3    14    16    1
     4    14     7    1
     5     7     8   ar
     6     8     9   ar
     7     9    10   ar
     8    10     1    1
     9     1     2    1
    10     2     3    1
    11     3     4    1
    12     4    17    1
    13    17    18    1
    14    18    19    1
    15    19    20    1
    16    20    21    1
    17    21    22   ar
    18    22    23   ar
    19    23    24   ar
    20    24    25   ar
    21    25    26   ar
    22    26    27    1
    23     4     5   am
    24     5     6    2
    25    10    11   ar
    26    11    12   ar
    27    12     7   ar
    28     5     1   am
    29    27    19    1
    30    26    21   ar
@<TRIPOS>MOLECULE
*****
 27 30 0 0 0
SMALL
GASTEIGER

@<TRIPOS>ATOM
      1 N         140.9946  138.5242  160.5133 N.am    1  UNL1       -0.2414
      2 C         139.6198  138.6442  159.9255 C.3     1  UNL1        0.1212
      3 C         139.7302  138.4426  158.4432 C.3     1  UNL1        0.1169
      4 N         141.1733  138.1981  158.1149 N.am    1  UNL1       -0.2606
      5 C         141.9547  138.2485  159.3943 C.2     1  UNL1        0.3111
      6 O         143.4361  138.0569  159.5308 O.2     1  UNL1       -0.2520
      7 C         142.0526  138.9215  164.8690 C.ar    1  UNL1       -0.0227
      8 C         142.2100  140.0956  163.9488 C.ar    1  UNL1       -0.0030
      9 C         141.8573  139.9632  162.4969 C.ar    1  UNL1        0.0146
     10 C         141.3472  138.6567  161.9652 C.ar    1  UNL1        0.0553
     11 C         141.1899  137.4826  162.8853 C.ar    1  UNL1        0.0146
     12 C         141.5425  137.6150  164.3373 C.ar    1  UNL1       -0.0030
     13 C         143.7079  138.3543  166.0683 C.3     1  UNL1        0.0044
     14 C         142.4053  139.0540  166.3210 C.3     1  UNL1        0.0189
     15 C         141.1028  139.7536  166.5735 C.3     1  UNL1        0.0044
     16 C         142.7580  139.1865  167.7729 C.3     1  UNL1        0.0044
     17 C         141.7361  137.9472  156.7473 C.3     1  UNL1        0.1123
     18 C         141.3870  136.6872  156.0122 C.3     1  UNL1        0.0944
     19 N         142.2346  135.4611  156.1807 N.3     1  UNL1       -0.2637
     20 C         143.0982  135.1422  157.3649 C.3     1  UNL1        0.0992
     21 C         143.7647  133.8227  157.1107 C.ar    1  UNL1       -0.0088
     22 C         144.7246  133.0092  157.9273 C.ar    1  UNL1       -0.0032
     23 C         145.2328  131.6992  157.4025 C.ar    1  UNL1       -0.0003
     24 C         144.7811  131.2026  156.0611 C.ar    1  UNL1       -0.0003
     25 C         143.8213  132.0161  155.2445 C.ar    1  UNL1       -0.0032
     26 C         143.3131  133.3261  155.7693 C.ar    1  UNL1       -0.0088
     27 C         142.3674  134.3387  155.1945 C.3     1  UNL1        0.0992
@<TRIPOS>BOND
     1    13    14    1
     2    14    15    1
     3    14    16    1
     4    14     7    1
     5     7     8   ar
     6     8     9   ar
     7     9    10   ar
     8    10     1    1
     9     1     2    1
    10     2     3    1
    11     3     4    1
    12     4    17    1
    13    17    18    1
    14    18    19    1
    15    19    20    1
    16    20    21    1
    17    21    22   ar
    18    22    23   ar
    19    23    24   ar
    20    24    25   ar
    21    25    26   ar
    22    26    27    1
    23     4     5   am
    24     5     6    2
    25    10    11   ar
    26    11    12   ar
    27    12     7   ar
    28     5     1   am
    29    27    19    1
    30    26    21   ar
@<TRIPOS>MOLECULE
*****
 27 30 0 0 0
SMALL
GASTEIGER

@<TRIPOS>ATOM
      1 N         141.0338  139.2752  165.2496 N.am    1  UNL1       -0.2414
      2 C         141.9609  138.4350  164.4223 C.3     1  UNL1        0.1212
      3 C         141.1429  137.7297  163.3813 C.3     1  UNL1        0.1169
      4 N         139.7101  138.1341  163.5654 N.am    1  UNL1       -0.2606
      5 C         139.6427  139.0893  164.7200 C.2     1  UNL1        0.3111
      6 O         138.4021  139.7437  165.2517 O.2     1  UNL1       -0.2520
      7 C         142.2177  141.8940  168.7122 C.ar    1  UNL1       -0.0227
      8 C         142.6982  140.4745  168.6467 C.ar    1  UNL1       -0.0030
      9 C         142.3036  139.6016  167.4925 C.ar    1  UNL1        0.0146
     10 C         141.4284  140.1481  166.4038 C.ar    1  UNL1        0.0553
     11 C         140.9479  141.5675  166.4692 C.ar    1  UNL1        0.0146
     12 C         141.3425  142.4405  167.6234 C.ar    1  UNL1       -0.0030
     13 C         141.2076  143.2858  169.9543 C.3     1  UNL1        0.0044
     14 C         142.6123  142.7670  169.8665 C.3     1  UNL1        0.0189
     15 C         144.0170  142.2481  169.7786 C.3     1  UNL1        0.0044
     16 C         143.0070  143.6399  171.0207 C.3     1  UNL1        0.0044
     17 C         138.5487  137.6656  162.7397 C.3     1  UNL1        0.1123
     18 C         137.8375  138.6257  161.8328 C.3     1  UNL1        0.0944
     19 N         138.1721  140.0872  161.8771 N.3     1  UNL1       -0.2637
     20 C         139.3250  140.7492  161.1826 C.3     1  UNL1        0.0992
     21 C         139.2779  142.2145  161.5000 C.ar    1  UNL1       -0.0088
     22 C         140.1587  143.3584  161.0930 C.ar    1  UNL1       -0.0032
     23 C         139.8574  144.7459  161.5767 C.ar    1  UNL1       -0.0003
     24 C         138.6753  144.9895  162.4673 C.ar    1  UNL1       -0.0003
     25 C         137.7945  143.8456  162.8743 C.ar    1  UNL1       -0.0032
     26 C         138.0958  142.4581  162.3906 C.ar    1  UNL1       -0.0088
     27 C         137.4124  141.1434  162.6237 C.3     1  UNL1        0.0992
@<TRIPOS>BOND
     1    13    14    1
     2    14    15    1
     3    14    16    1
     4    14     7    1
     5     7     8   ar
     6     8     9   ar
     7     9    10   ar
     8    10     1    1
     9     1     2    1
    10     2     3    1
    11     3     4    1
    12     4    17    1
    13    17    18    1
    14    18    19    1
    15    19    20    1
    16    20    21    1
    17    21    22   ar
    18    22    23   ar
    19    23    24   ar
    20    24    25   ar
    21    25    26   ar
    22    26    27    1
    23     4     5   am
    24     5     6    2
    25    10    11   ar
    26    11    12   ar
    27    12     7   ar
    28     5     1   am
    29    27    19    1
    30    26    21   ar
@<TRIPOS>MOLECULE
*****
 27 30 0 0 0
SMALL
GASTEIGER

@<TRIPOS>ATOM
      1 N         139.5196  138.8574  164.5408 N.am    1  UNL1       -0.2414
      2 C         140.0833  137.6924  163.7824 C.3     1  UNL1        0.1212
      3 C         139.3987  137.6324  162.4490 C.3     1  UNL1        0.1169
      4 N         138.4120  138.7603  162.3834 N.am    1  UNL1       -0.2606
      5 C         138.4868  139.5174  163.6762 C.2     1  UNL1        0.3111
      6 O         137.6717  140.7228  164.0404 O.2     1  UNL1       -0.2520
      7 C         140.7171  140.1459  168.6827 C.ar    1  UNL1       -0.0227
      8 C         141.7646  139.9413  167.6286 C.ar    1  UNL1       -0.0030
      9 C         141.3654  139.5118  166.2480 C.ar    1  UNL1        0.0146
     10 C         139.9188  139.2869  165.9214 C.ar    1  UNL1        0.0553
     11 C         138.8714  139.4914  166.9754 C.ar    1  UNL1        0.0146
     12 C         139.2705  139.9209  168.3561 C.ar    1  UNL1       -0.0030
     13 C         139.7190  141.0585  170.3170 C.3     1  UNL1        0.0044
     14 C         141.1163  140.5754  170.0634 C.3     1  UNL1        0.0189
     15 C         142.5135  140.0924  169.8096 C.3     1  UNL1        0.0044
     16 C         141.5156  141.0049  171.4440 C.3     1  UNL1        0.0044
     17 C         137.5091  139.0758  161.2278 C.3     1  UNL1        0.1123
     18 C         137.8181  140.2368  160.3298 C.3     1  UNL1        0.0944
     19 N         138.6361  141.3847  160.8426 N.3     1  UNL1       -0.2637
     20 C         140.1337  141.4418  160.9049 C.3     1  UNL1        0.0992
     21 C         140.5233  142.7696  161.4839 C.ar    1  UNL1       -0.0088
     22 C         141.8601  143.3820  161.7802 C.ar    1  UNL1       -0.0032
     23 C         141.9401  144.7579  162.3722 C.ar    1  UNL1       -0.0003
     24 C         140.6833  145.5214  162.6678 C.ar    1  UNL1       -0.0003
     25 C         139.3464  144.9090  162.3715 C.ar    1  UNL1       -0.0032
     26 C         139.2665  143.5331  161.7796 C.ar    1  UNL1       -0.0088
     27 C         138.1001  142.6772  161.3832 C.3     1  UNL1        0.0992
@<TRIPOS>BOND
     1    13    14    1
     2    14    15    1
     3    14    16    1
     4    14     7    1
     5     7     8   ar
     6     8     9   ar
     7     9    10   ar
     8    10     1    1
     9     1     2    1
    10     2     3    1
    11     3     4    1
    12     4    17    1
    13    17    18    1
    14    18    19    1
    15    19    20    1
    16    20    21    1
    17    21    22   ar
    18    22    23   ar
    19    23    24   ar
    20    24    25   ar
    21    25    26   ar
    22    26    27    1
    23     4     5   am
    24     5     6    2
    25    10    11   ar
    26    11    12   ar
    27    12     7   ar
    28     5     1   am
    29    27    19    1
    30    26    21   ar
@<TRIPOS>MOLECULE
*****
 27 30 0 0 0
SMALL
GASTEIGER

@<TRIPOS>ATOM
      1 N         140.3028  138.6448  161.0352 N.am    1  UNL1       -0.2414
      2 C         139.3389  138.8946  159.9133 C.3     1  UNL1        0.1212
      3 C         140.0175  138.5240  158.6279 C.3     1  UNL1        0.1169
      4 N         141.4009  138.0451  158.9554 N.am    1  UNL1       -0.2606
      5 C         141.5771  138.1198  160.4431 C.2     1  UNL1        0.3111
      6 O         142.8111  137.7367  161.2051 O.2     1  UNL1       -0.2520
      7 C         139.5104  139.3469  165.4088 C.ar    1  UNL1       -0.0227
      8 C         139.6358  140.5123  164.4727 C.ar    1  UNL1       -0.0030
      9 C         139.8999  140.2783  163.0148 C.ar    1  UNL1        0.0146
     10 C         140.0387  138.8789  162.4930 C.ar    1  UNL1        0.0553
     11 C         139.9133  137.7134  163.4290 C.ar    1  UNL1        0.0146
     12 C         139.6492  137.9475  164.8869 C.ar    1  UNL1       -0.0030
     13 C         137.9907  138.7660  166.7700 C.3     1  UNL1        0.0044
     14 C         139.2463  139.5809  166.8667 C.3     1  UNL1        0.0189
     15 C         140.5019  140.3958  166.9633 C.3     1  UNL1        0.0044
     16 C         138.9822  139.8150  168.3246 C.3     1  UNL1        0.0044
     17 C         142.4276  137.5743  157.9684 C.3     1  UNL1        0.1123
     18 C         141.9976  136.8541  156.7249 C.3     1  UNL1        0.0944
     19 N         142.5611  135.5002  156.4096 N.3     1  UNL1       -0.2637
     20 C         142.2207  134.6600  155.2144 C.3     1  UNL1        0.0992
     21 C         143.0131  133.3893  155.3003 C.ar    1  UNL1       -0.0088
     22 C         143.0860  132.1894  154.4031 C.ar    1  UNL1       -0.0032
     23 C         143.9889  131.0443  154.7541 C.ar    1  UNL1       -0.0003
     24 C         144.8189  131.0990  156.0023 C.ar    1  UNL1       -0.0003
     25 C         144.7460  132.2988  156.8995 C.ar    1  UNL1       -0.0032
     26 C         143.8431  133.4440  156.5485 C.ar    1  UNL1       -0.0088
     27 C         143.5637  134.7486  157.2340 C.3     1  UNL1        0.0992
@<TRIPOS>BOND
     1    13    14    1
     2    14    15    1
     3    14    16    1
     4    14     7    1
     5     7     8   ar
     6     8     9   ar
     7     9    10   ar
     8    10     1    1
     9     1     2    1
    10     2     3    1
    11     3     4    1
    12     4    17    1
    13    17    18    1
    14    18    19    1
    15    19    20    1
    16    20    21    1
    17    21    22   ar
    18    22    23   ar
    19    23    24   ar
    20    24    25   ar
    21    25    26   ar
    22    26    27    1
    23     4     5   am
    24     5     6    2
    25    10    11   ar
    26    11    12   ar
    27    12     7   ar
    28     5     1   am
    29    27    19    1
    30    26    21   ar
@<TRIPOS>MOLECULE
*****
 27 30 0 0 0
SMALL
GASTEIGER

@<TRIPOS>ATOM
      1 N         140.0511  138.6784  164.2291 N.am    1  UNL1       -0.2414
      2 C         138.8209  137.8278  164.1152 C.3     1  UNL1        0.1212
      3 C         138.5274  137.6299  162.6575 C.3     1  UNL1        0.1169
      4 N         139.5763  138.3583  161.8705 N.am    1  UNL1       -0.2606
      5 C         140.5180  139.0063  162.8418 C.2     1  UNL1        0.3111
      6 O         141.7162  139.8364  162.4880 O.2     1  UNL1       -0.2520
      7 C         141.9990  140.0124  168.0599 C.ar    1  UNL1       -0.0227
      8 C         140.5473  140.3012  167.8165 C.ar    1  UNL1       -0.0030
      9 C         139.8980  139.8565  166.5396 C.ar    1  UNL1        0.0146
     10 C         140.7003  139.1231  165.5060 C.ar    1  UNL1        0.0553
     11 C         142.1520  138.8343  165.7494 C.ar    1  UNL1        0.0146
     12 C         142.8014  139.2790  167.0264 C.ar    1  UNL1       -0.0030
     13 C         142.3213  139.1342  169.9638 C.3     1  UNL1        0.0044
     14 C         142.6483  140.4571  169.3370 C.3     1  UNL1        0.0189
     15 C         142.9753  141.7800  168.7100 C.3     1  UNL1        0.0044
     16 C         143.2976  140.9018  170.6139 C.3     1  UNL1        0.0044
     17 C         139.6675  138.4266  160.3748 C.3     1  UNL1        0.1123
     18 C         139.1619  139.6368  159.6471 C.3     1  UNL1        0.0944
     19 N         139.1453  140.9713  160.3320 N.3     1  UNL1       -0.2637
     20 C         140.1332  142.0809  160.1251 C.3     1  UNL1        0.0992
     21 C         139.7364  143.2258  161.0092 C.ar    1  UNL1       -0.0088
     22 C         140.3386  144.5824  161.2256 C.ar    1  UNL1       -0.0032
     23 C         139.7076  145.5370  162.1953 C.ar    1  UNL1       -0.0003
     24 C         138.4743  145.1351  162.9487 C.ar    1  UNL1       -0.0003
     25 C         137.8721  143.7784  162.7323 C.ar    1  UNL1       -0.0032
     26 C         138.5031  142.8238  161.7625 C.ar    1  UNL1       -0.0088
     27 C         138.1378  141.4305  161.3440 C.3     1  UNL1        0.0992
@<TRIPOS>BOND
     1    13    14    1
     2    14    15    1
     3    14    16    1
     4    14     7    1
     5     7     8   ar
     6     8     9   ar
     7     9    10   ar
     8    10     1    1
     9     1     2    1
    10     2     3    1
    11     3     4    1
    12     4    17    1
    13    17    18    1
    14    18    19    1
    15    19    20    1
    16    20    21    1
    17    21    22   ar
    18    22    23   ar
    19    23    24   ar
    20    24    25   ar
    21    25    26   ar
    22    26    27    1
    23     4     5   am
    24     5     6    2
    25    10    11   ar
    26    11    12   ar
    27    12     7   ar
    28     5     1   am
    29    27    19    1
    30    26    21   ar
@<TRIPOS>MOLECULE
*****
 27 30 0 0 0
SMALL
GASTEIGER

@<TRIPOS>ATOM
      1 N         138.8784  140.2587  164.3209 N.am    1  UNL1       -0.2414
      2 C         137.7990  140.9400  163.5331 C.3     1  UNL1        0.1212
      3 C         137.7359  140.2960  162.1798 C.3     1  UNL1        0.1169
      4 N         138.7764  139.2165  162.1314 N.am    1  UNL1       -0.2606
      5 C         139.4825  139.1935  163.4546 C.2     1  UNL1        0.3111
      6 O         140.5969  138.2679  163.8433 O.2     1  UNL1       -0.2520
      7 C         140.0913  141.2385  168.5421 C.ar    1  UNL1       -0.0227
      8 C         139.3706  139.9565  168.2472 C.ar    1  UNL1       -0.0030
      9 C         138.9662  139.6298  166.8402 C.ar    1  UNL1        0.0146
     10 C         139.2827  140.5853  165.7280 C.ar    1  UNL1        0.0553
     11 C         140.0034  141.8673  166.0228 C.ar    1  UNL1        0.0146
     12 C         140.4077  142.1940  167.4299 C.ar    1  UNL1       -0.0030
     13 C         140.5563  140.1014  170.2715 C.3     1  UNL1        0.0044
     14 C         140.4956  141.5651  169.9492 C.3     1  UNL1        0.0189
     15 C         140.4349  143.0288  169.6269 C.3     1  UNL1        0.0044
     16 C         140.8999  141.8918  171.3563 C.3     1  UNL1        0.0044
     17 C         139.0609  138.3179  160.9645 C.3     1  UNL1        0.1123
     18 C         140.2823  138.5443  160.1238 C.3     1  UNL1        0.0944
     19 N         141.3412  139.5027  160.5821 N.3     1  UNL1       -0.2637
     20 C         142.6127  139.1393  161.2900 C.3     1  UNL1        0.0992
     21 C         143.3719  140.4048  161.5585 C.ar    1  UNL1       -0.0088
     22 C         144.6901  140.6619  162.2264 C.ar    1  UNL1       -0.0032
     23 C         145.2060  142.0648  162.3524 C.ar    1  UNL1       -0.0003
     24 C         144.4037  143.2104  161.8104 C.ar    1  UNL1       -0.0003
     25 C         143.0855  142.9533  161.1425 C.ar    1  UNL1       -0.0032
     26 C         142.5696  141.5505  161.0165 C.ar    1  UNL1       -0.0088
     27 C         141.3146  140.9929  160.4131 C.3     1  UNL1        0.0992
@<TRIPOS>BOND
     1    13    14    1
     2    14    15    1
     3    14    16    1
     4    14     7    1
     5     7     8   ar
     6     8     9   ar
     7     9    10   ar
     8    10     1    1
     9     1     2    1
    10     2     3    1
    11     3     4    1
    12     4    17    1
    13    17    18    1
    14    18    19    1
    15    19    20    1
    16    20    21    1
    17    21    22   ar
    18    22    23   ar
    19    23    24   ar
    20    24    25   ar
    21    25    26   ar
    22    26    27    1
    23     4     5   am
    24     5     6    2
    25    10    11   ar
    26    11    12   ar
    27    12     7   ar
    28     5     1   am
    29    27    19    1
    30    26    21   ar
@<TRIPOS>MOLECULE
*****
 27 30 0 0 0
SMALL
GASTEIGER

@<TRIPOS>ATOM
      1 N         142.8844  139.0592  163.5570 N.am    1  UNL1       -0.2414
      2 C         144.0283  139.7922  162.9213 C.3     1  UNL1        0.1212
      3 C         144.1848  139.2811  161.5197 C.3     1  UNL1        0.1169
      4 N         143.1375  138.2322  161.2893 N.am    1  UNL1       -0.2606
      5 C         142.3338  138.0951  162.5484 C.2     1  UNL1        0.3111
      6 O         141.1819  137.1583  162.7615 O.2     1  UNL1       -0.2520
      7 C         141.3704  139.6490  167.7534 C.ar    1  UNL1       -0.0227
      8 C         140.4729  139.9327  166.5854 C.ar    1  UNL1       -0.0030
      9 C         140.9776  139.7361  165.1866 C.ar    1  UNL1        0.0146
     10 C         142.3797  139.2558  164.9558 C.ar    1  UNL1        0.0553
     11 C         143.2772  138.9721  166.1237 C.ar    1  UNL1        0.0146
     12 C         142.7725  139.1687  167.5225 C.ar    1  UNL1       -0.0030
     13 C         139.5289  140.2590  168.6117 C.3     1  UNL1        0.0044
     14 C         140.8657  139.8456  169.1523 C.3     1  UNL1        0.0189
     15 C         142.2025  139.4323  169.6926 C.3     1  UNL1        0.0044
     16 C         140.3610  140.0423  170.5511 C.3     1  UNL1        0.0044
     17 C         142.9303  137.4566  160.0222 C.3     1  UNL1        0.1123
     18 C         142.1989  138.0816  158.8714 C.3     1  UNL1        0.0944
     19 N         142.0328  137.3236  157.5877 N.3     1  UNL1       -0.2637
     20 C         142.9692  136.2817  157.0514 C.3     1  UNL1        0.0992
     21 C         142.4162  135.7886  155.7472 C.ar    1  UNL1       -0.0088
     22 C         142.9115  134.7636  154.7704 C.ar    1  UNL1       -0.0032
     23 C         142.1285  134.4757  153.5239 C.ar    1  UNL1       -0.0003
     24 C         140.8503  135.2128  153.2540 C.ar    1  UNL1       -0.0003
     25 C         140.3550  136.2378  154.2308 C.ar    1  UNL1       -0.0032
     26 C         141.1380  136.5257  155.4774 C.ar    1  UNL1       -0.0088
     27 C         140.9010  137.4744  156.6148 C.3     1  UNL1        0.0992
@<TRIPOS>BOND
     1    13    14    1
     2    14    15    1
     3    14    16    1
     4    14     7    1
     5     7     8   ar
     6     8     9   ar
     7     9    10   ar
     8    10     1    1
     9     1     2    1
    10     2     3    1
    11     3     4    1
    12     4    17    1
    13    17    18    1
    14    18    19    1
    15    19    20    1
    16    20    21    1
    17    21    22   ar
    18    22    23   ar
    19    23    24   ar
    20    24    25   ar
    21    25    26   ar
    22    26    27    1
    23     4     5   am
    24     5     6    2
    25    10    11   ar
    26    11    12   ar
    27    12     7   ar
    28     5     1   am
    29    27    19    1
    30    26    21   ar
@<TRIPOS>MOLECULE
*****
 27 30 0 0 0
SMALL
GASTEIGER

@<TRIPOS>ATOM
      1 N         143.7536  140.8438  163.8710 N.am    1  UNL1       -0.2414
      2 C         144.0359  139.6270  163.0405 C.3     1  UNL1        0.1212
      3 C         144.3358  140.0795  161.6422 C.3     1  UNL1        0.1169
      4 N         144.2389  141.5760  161.6085 N.am    1  UNL1       -0.2606
      5 C         143.8791  142.0483  162.9860 C.2     1  UNL1        0.3111
      6 O         143.6797  143.4748  163.4049 O.2     1  UNL1       -0.2520
      7 C         142.7131  140.8746  168.2489 C.ar    1  UNL1       -0.0227
      8 C         143.0601  142.1565  167.5514 C.ar    1  UNL1       -0.0030
      9 C         143.4069  142.1462  166.0921 C.ar    1  UNL1        0.0146
     10 C         143.4068  140.8541  165.3303 C.ar    1  UNL1        0.0553
     11 C         143.0598  139.5722  166.0278 C.ar    1  UNL1        0.0146
     12 C         142.7129  139.5825  167.4871 C.ar    1  UNL1       -0.0030
     13 C         141.3261  139.8310  169.4684 C.3     1  UNL1        0.0044
     14 C         142.3662  140.8849  169.7083 C.3     1  UNL1        0.0189
     15 C         143.4063  141.9389  169.9480 C.3     1  UNL1        0.0044
     16 C         142.0194  140.8953  171.1676 C.3     1  UNL1        0.0044
     17 C         144.4625  142.4472  160.4081 C.3     1  UNL1        0.1123
     18 C         143.2985  143.1175  159.7405 C.3     1  UNL1        0.0944
     19 N         141.9999  143.2724  160.4751 N.3     1  UNL1       -0.2637
     20 C         140.9796  142.1959  160.6989 C.3     1  UNL1        0.0992
     21 C         139.8427  142.7893  161.4770 C.ar    1  UNL1       -0.0088
     22 C         138.5593  142.2019  161.9846 C.ar    1  UNL1       -0.0032
     23 C         137.5936  143.0577  162.7494 C.ar    1  UNL1       -0.0003
     24 C         137.9113  144.5009  163.0066 C.ar    1  UNL1       -0.0003
     25 C         139.1947  145.0883  162.4990 C.ar    1  UNL1       -0.0032
     26 C         140.1604  144.2325  161.7342 C.ar    1  UNL1       -0.0088
     27 C         141.4937  144.5311  161.1150 C.3     1  UNL1        0.0992
@<TRIPOS>BOND
     1    13    14    1
     2    14    15    1
     3    14    16    1
     4    14     7    1
     5     7     8   ar
     6     8     9   ar
     7     9    10   ar
     8    10     1    1
     9     1     2    1
    10     2     3    1
    11     3     4    1
    12     4    17    1
    13    17    18    1
    14    18    19    1
    15    19    20    1
    16    20    21    1
    17    21    22   ar
    18    22    23   ar
    19    23    24   ar
    20    24    25   ar
    21    25    26   ar
    22    26    27    1
    23     4     5   am
    24     5     6    2
    25    10    11   ar
    26    11    12   ar
    27    12     7   ar
    28     5     1   am
    29    27    19    1
    30    26    21   ar
