@<TRIPOS>MOLECULE
*****
 29 32 0 0 0
SMALL
GASTEIGER

@<TRIPOS>ATOM
      1 C         141.5819  145.4622  158.7907 C.3     1  UNL1        0.0420
      2 C         141.4720  144.9881  160.2096 C.3     1  UNL1        0.1909
      3 O         142.5141  144.0702  160.7766 O.3     1  UNL1       -0.3501
      4 C         142.4042  143.5962  162.1955 C.3     1  UNL1        0.1141
      5 C         142.2942  143.1222  163.6144 C.3     1  UNL1        0.0463
      6 C         143.3363  142.2043  164.1813 C.3     1  UNL1        0.0746
      7 N         144.4883  141.7603  163.3294 N.3     1  UNL1       -0.2722
      8 C         144.5983  142.2343  161.9105 C.3     1  UNL1        0.0746
      9 C         143.5562  143.1522  161.3436 C.3     1  UNL1        0.0463
     10 C         141.2522  144.0401  163.0474 C.3     1  UNL1        0.1206
     11 N         140.2101  144.9581  162.4804 N.am    1  UNL1       -0.2748
     12 C         140.3200  145.4321  161.0615 C.2     1  UNL1        0.2529
     13 O         139.2779  146.3501  160.4945 O.2     1  UNL1       -0.2722
     14 C         145.5304  140.8424  163.8964 C.3     1  UNL1        0.0768
     15 C         145.1519  139.4596  164.3376 C.3     1  UNL1        0.0437
     16 C         143.8403  138.8692  163.9118 C.ar    1  UNL1       -0.0208
     17 C         142.7539  138.6484  164.9223 C.ar    1  UNL1       -0.0042
     18 C         141.4424  138.0579  164.4964 C.ar    1  UNL1       -0.0003
     19 C         141.2173  137.6883  163.0602 C.ar    1  UNL1       -0.0000
     20 C         142.3037  137.9092  162.0498 C.ar    1  UNL1       -0.0003
     21 C         143.6152  138.4996  162.4756 C.ar    1  UNL1       -0.0042
     22 C         139.0581  145.4021  163.3323 C.3     1  UNL1        0.0982
     23 C         138.6760  144.6112  164.5484 C.3     1  UNL1        0.0478
     24 C         138.5019  143.1245  164.4519 C.ar    1  UNL1       -0.0205
     25 C         137.6493  142.5381  163.3659 C.ar    1  UNL1       -0.0042
     26 C         137.4752  141.0514  163.2695 C.ar    1  UNL1       -0.0003
     27 C         138.1538  140.1510  164.2589 C.ar    1  UNL1       -0.0000
     28 C         139.0064  140.7374  165.3448 C.ar    1  UNL1       -0.0003
     29 C         139.1804  142.2241  165.4413 C.ar    1  UNL1       -0.0042
@<TRIPOS>BOND
     1     1     2    1
     2     2     3    1
     3     3     4    1
     4     4     5    1
     5     5     6    1
     6     6     7    1
     7     7    14    1
     8    14    15    1
     9    15    16    1
    10    16    17   ar
    11    17    18   ar
    12    18    19   ar
    13    19    20   ar
    14    20    21   ar
    15     7     8    1
    16     8     9    1
    17     4    10    1
    18    10    11    1
    19    11    22    1
    20    22    23    1
    21    23    24    1
    22    24    25   ar
    23    25    26   ar
    24    26    27   ar
    25    27    28   ar
    26    28    29   ar
    27    11    12   am
    28    12    13    2
    29    12     2    1
    30     9     4    1
    31    29    24   ar
    32    21    16   ar
@<TRIPOS>MOLECULE
*****
 29 32 0 0 0
SMALL
GASTEIGER

@<TRIPOS>ATOM
      1 C         140.6129  141.2995  170.9775 C.3     1  UNL1        0.0420
      2 C         140.4899  141.0170  169.5095 C.3     1  UNL1        0.1909
      3 O         141.5176  141.5483  168.5548 O.3     1  UNL1       -0.3501
      4 C         141.3946  141.2657  167.0867 C.3     1  UNL1        0.1141
      5 C         141.2716  140.9832  165.6188 C.3     1  UNL1        0.0463
      6 C         142.2993  141.5145  164.6641 C.3     1  UNL1        0.0746
      7 N         143.4500  142.3284  165.1773 N.3     1  UNL1       -0.2722
      8 C         143.5730  142.6110  166.6453 C.3     1  UNL1        0.0746
      9 C         142.5453  142.0796  167.6000 C.3     1  UNL1        0.0463
     10 C         140.2439  140.4518  166.5735 C.3     1  UNL1        0.1206
     11 N         139.2162  139.9205  167.5282 N.am    1  UNL1       -0.2748
     12 C         139.3392  140.2031  168.9962 C.2     1  UNL1        0.2529
     13 O         138.3115  139.6717  169.9510 O.2     1  UNL1       -0.2722
     14 C         144.4777  142.8597  164.2225 C.3     1  UNL1        0.0768
     15 C         145.3530  141.9111  163.4585 C.3     1  UNL1        0.0437
     16 C         144.7573  141.0218  162.4075 C.ar    1  UNL1       -0.0208
     17 C         144.3350  141.5983  161.0887 C.ar    1  UNL1       -0.0042
     18 C         143.7392  140.7091  160.0379 C.ar    1  UNL1       -0.0003
     19 C         143.5658  139.2434  160.3058 C.ar    1  UNL1       -0.0000
     20 C         143.9881  138.6670  161.6246 C.ar    1  UNL1       -0.0003
     21 C         144.5838  139.5562  162.6755 C.ar    1  UNL1       -0.0042
     22 C         138.0655  139.1066  167.0150 C.3     1  UNL1        0.0982
     23 C         138.3235  137.8574  166.2256 C.3     1  UNL1        0.0478
     24 C         139.0493  137.9349  164.9151 C.ar    1  UNL1       -0.0205
     25 C         138.4801  138.7466  163.7894 C.ar    1  UNL1       -0.0042
     26 C         139.2059  138.8240  162.4790 C.ar    1  UNL1       -0.0003
     27 C         140.5008  138.0897  162.2943 C.ar    1  UNL1       -0.0000
     28 C         141.0699  137.2780  163.4200 C.ar    1  UNL1       -0.0003
     29 C         140.3441  137.2006  164.7304 C.ar    1  UNL1       -0.0042
@<TRIPOS>BOND
     1     1     2    1
     2     2     3    1
     3     3     4    1
     4     4     5    1
     5     5     6    1
     6     6     7    1
     7     7    14    1
     8    14    15    1
     9    15    16    1
    10    16    17   ar
    11    17    18   ar
    12    18    19   ar
    13    19    20   ar
    14    20    21   ar
    15     7     8    1
    16     8     9    1
    17     4    10    1
    18    10    11    1
    19    11    22    1
    20    22    23    1
    21    23    24    1
    22    24    25   ar
    23    25    26   ar
    24    26    27   ar
    25    27    28   ar
    26    28    29   ar
    27    11    12   am
    28    12    13    2
    29    12     2    1
    30     9     4    1
    31    29    24   ar
    32    21    16   ar
@<TRIPOS>MOLECULE
*****
 29 32 0 0 0
SMALL
GASTEIGER

@<TRIPOS>ATOM
      1 C         139.6550  146.2923  161.6407 C.3     1  UNL1        0.0420
      2 C         140.1479  144.8767  161.6969 C.3     1  UNL1        0.1909
      3 O         139.5778  143.9234  162.7049 O.3     1  UNL1       -0.3501
      4 C         140.0707  142.5078  162.7610 C.3     1  UNL1        0.1141
      5 C         140.5636  141.0922  162.8171 C.3     1  UNL1        0.0463
      6 C         139.9934  140.1389  163.8251 C.3     1  UNL1        0.0746
      7 N         138.9304  140.6013  164.7771 N.3     1  UNL1       -0.2722
      8 C         138.4375  142.0168  164.7211 C.3     1  UNL1        0.0746
      9 C         139.0077  142.9701  163.7130 C.3     1  UNL1        0.0463
     10 C         141.1337  142.0455  161.8090 C.3     1  UNL1        0.1206
     11 N         141.7038  142.9988  160.8009 N.am    1  UNL1       -0.2748
     12 C         141.2109  144.4144  160.7449 C.2     1  UNL1        0.2529
     13 O         141.7810  145.3677  159.7368 O.2     1  UNL1       -0.2722
     14 C         138.3603  139.6479  165.7852 C.3     1  UNL1        0.0768
     15 C         138.9673  139.5517  167.1535 C.3     1  UNL1        0.0437
     16 C         140.2401  140.2829  167.4625 C.ar    1  UNL1       -0.0208
     17 C         141.5620  139.6736  167.1002 C.ar    1  UNL1       -0.0042
     18 C         142.8347  140.4048  167.4092 C.ar    1  UNL1       -0.0003
     19 C         142.7855  141.7453  168.0805 C.ar    1  UNL1       -0.0000
     20 C         141.4636  142.3546  168.4428 C.ar    1  UNL1       -0.0003
     21 C         140.1909  141.6234  168.1338 C.ar    1  UNL1       -0.0042
     22 C         142.7668  142.5365  159.8489 C.3     1  UNL1        0.0982
     23 C         144.1835  142.3908  160.3199 C.3     1  UNL1        0.0478
     24 C         144.4719  141.7382  161.6393 C.ar    1  UNL1       -0.0205
     25 C         144.9365  142.5667  162.8003 C.ar    1  UNL1       -0.0042
     26 C         145.2248  141.9141  164.1197 C.ar    1  UNL1       -0.0003
     27 C         145.0486  140.4329  164.2782 C.ar    1  UNL1       -0.0000
     28 C         144.5840  139.6044  163.1173 C.ar    1  UNL1       -0.0003
     29 C         144.2957  140.2570  161.7979 C.ar    1  UNL1       -0.0042
@<TRIPOS>BOND
     1     1     2    1
     2     2     3    1
     3     3     4    1
     4     4     5    1
     5     5     6    1
     6     6     7    1
     7     7    14    1
     8    14    15    1
     9    15    16    1
    10    16    17   ar
    11    17    18   ar
    12    18    19   ar
    13    19    20   ar
    14    20    21   ar
    15     7     8    1
    16     8     9    1
    17     4    10    1
    18    10    11    1
    19    11    22    1
    20    22    23    1
    21    23    24    1
    22    24    25   ar
    23    25    26   ar
    24    26    27   ar
    25    27    28   ar
    26    28    29   ar
    27    11    12   am
    28    12    13    2
    29    12     2    1
    30     9     4    1
    31    29    24   ar
    32    21    16   ar
@<TRIPOS>MOLECULE
*****
 29 32 0 0 0
SMALL
GASTEIGER

@<TRIPOS>ATOM
      1 C         141.0054  142.0889  169.1130 C.3     1  UNL1        0.0420
      2 C         140.3911  141.6924  167.8032 C.3     1  UNL1        0.1909
      3 O         140.6367  142.5221  166.5780 O.3     1  UNL1       -0.3501
      4 C         140.0225  142.1257  165.2681 C.3     1  UNL1        0.1141
      5 C         139.4082  141.7292  163.9584 C.3     1  UNL1        0.0463
      6 C         139.6538  142.5589  162.7332 C.3     1  UNL1        0.0746
      7 N         140.5137  143.7851  162.8177 N.3     1  UNL1       -0.2722
      8 C         141.1279  144.1815  164.1274 C.3     1  UNL1        0.0746
      9 C         140.8823  143.3518  165.3526 C.3     1  UNL1        0.0463
     10 C         139.1626  140.8995  165.1836 C.3     1  UNL1        0.1206
     11 N         138.9170  140.0698  166.4090 N.am    1  UNL1       -0.2748
     12 C         139.5312  140.4663  167.7187 C.2     1  UNL1        0.2529
     13 O         139.2856  139.6366  168.9440 O.2     1  UNL1       -0.2722
     14 C         140.7593  144.6148  161.5924 C.3     1  UNL1        0.0768
     15 C         141.8246  144.2132  160.6158 C.3     1  UNL1        0.0437
     16 C         142.7496  143.0776  160.9398 C.ar    1  UNL1       -0.0208
     17 C         142.4464  141.6968  160.4384 C.ar    1  UNL1       -0.0042
     18 C         143.3714  140.5613  160.7624 C.ar    1  UNL1       -0.0003
     19 C         144.5995  140.8066  161.5879 C.ar    1  UNL1       -0.0000
     20 C         144.9027  142.1873  162.0894 C.ar    1  UNL1       -0.0003
     21 C         143.9778  143.3228  161.7654 C.ar    1  UNL1       -0.0042
     22 C         138.0571  138.8437  166.3245 C.3     1  UNL1        0.0982
     23 C         138.5934  137.5936  165.6921 C.3     1  UNL1        0.0478
     24 C         139.4403  137.6817  164.4572 C.ar    1  UNL1       -0.0205
     25 C         138.7931  137.8490  163.1143 C.ar    1  UNL1       -0.0042
     26 C         139.6399  137.9371  161.8793 C.ar    1  UNL1       -0.0003
     27 C         141.1340  137.8579  161.9873 C.ar    1  UNL1       -0.0000
     28 C         141.7811  137.6907  163.3301 C.ar    1  UNL1       -0.0003
     29 C         140.9343  137.6025  164.5650 C.ar    1  UNL1       -0.0042
@<TRIPOS>BOND
     1     1     2    1
     2     2     3    1
     3     3     4    1
     4     4     5    1
     5     5     6    1
     6     6     7    1
     7     7    14    1
     8    14    15    1
     9    15    16    1
    10    16    17   ar
    11    17    18   ar
    12    18    19   ar
    13    19    20   ar
    14    20    21   ar
    15     7     8    1
    16     8     9    1
    17     4    10    1
    18    10    11    1
    19    11    22    1
    20    22    23    1
    21    23    24    1
    22    24    25   ar
    23    25    26   ar
    24    26    27   ar
    25    27    28   ar
    26    28    29   ar
    27    11    12   am
    28    12    13    2
    29    12     2    1
    30     9     4    1
    31    29    24   ar
    32    21    16   ar
@<TRIPOS>MOLECULE
*****
 29 32 0 0 0
SMALL
GASTEIGER

@<TRIPOS>ATOM
      1 C         144.3979  142.0768  157.9726 C.3     1  UNL1        0.0420
      2 C         143.7238  142.3812  159.2776 C.3     1  UNL1        0.1909
      3 O         143.9253  141.4745  160.4553 O.3     1  UNL1       -0.3501
      4 C         143.2512  141.7789  161.7603 C.3     1  UNL1        0.1141
      5 C         142.5771  142.0833  163.0652 C.3     1  UNL1        0.0463
      6 C         142.7787  141.1766  164.2430 C.3     1  UNL1        0.0746
      7 N         143.6543  139.9653  164.1158 N.3     1  UNL1       -0.2722
      8 C         144.3284  139.6609  162.8109 C.3     1  UNL1        0.0746
      9 C         144.1269  140.5677  161.6331 C.3     1  UNL1        0.0463
     10 C         142.3756  142.9901  161.8875 C.3     1  UNL1        0.1206
     11 N         142.1741  143.8969  160.7097 N.am    1  UNL1       -0.2748
     12 C         142.8482  143.5925  159.4048 C.2     1  UNL1        0.2529
     13 O         142.6466  144.4993  158.2270 O.2     1  UNL1       -0.2722
     14 C         143.8558  139.0585  165.2936 C.3     1  UNL1        0.0768
     15 C         142.7774  138.0949  165.6914 C.3     1  UNL1        0.0437
     16 C         141.4418  138.1409  165.0101 C.ar    1  UNL1       -0.0208
     17 C         141.2449  137.4423  163.6975 C.ar    1  UNL1       -0.0042
     18 C         139.9093  137.4883  163.0163 C.ar    1  UNL1       -0.0003
     19 C         138.7706  138.2331  163.6477 C.ar    1  UNL1       -0.0000
     20 C         138.9675  138.9317  164.9604 C.ar    1  UNL1       -0.0003
     21 C         140.3031  138.8857  165.6416 C.ar    1  UNL1       -0.0042
     22 C         141.2984  145.1082  160.8369 C.3     1  UNL1        0.0982
     23 C         139.8103  144.9503  160.9400 C.3     1  UNL1        0.0478
     24 C         139.2041  144.3416  162.1697 C.ar    1  UNL1       -0.0205
     25 C         139.4534  144.9599  163.5135 C.ar    1  UNL1       -0.0042
     26 C         138.8472  144.3512  164.7431 C.ar    1  UNL1       -0.0003
     27 C         137.9917  143.1243  164.6290 C.ar    1  UNL1       -0.0000
     28 C         137.7425  142.5061  163.2853 C.ar    1  UNL1       -0.0003
     29 C         138.3487  143.1148  162.0556 C.ar    1  UNL1       -0.0042
@<TRIPOS>BOND
     1     1     2    1
     2     2     3    1
     3     3     4    1
     4     4     5    1
     5     5     6    1
     6     6     7    1
     7     7    14    1
     8    14    15    1
     9    15    16    1
    10    16    17   ar
    11    17    18   ar
    12    18    19   ar
    13    19    20   ar
    14    20    21   ar
    15     7     8    1
    16     8     9    1
    17     4    10    1
    18    10    11    1
    19    11    22    1
    20    22    23    1
    21    23    24    1
    22    24    25   ar
    23    25    26   ar
    24    26    27   ar
    25    27    28   ar
    26    28    29   ar
    27    11    12   am
    28    12    13    2
    29    12     2    1
    30     9     4    1
    31    29    24   ar
    32    21    16   ar
@<TRIPOS>MOLECULE
*****
 29 32 0 0 0
SMALL
GASTEIGER

@<TRIPOS>ATOM
      1 C         139.4367  142.2484  157.2169 C.3     1  UNL1        0.0420
      2 C         139.3698  141.9925  158.6935 C.3     1  UNL1        0.1909
      3 O         140.2243  142.7913  159.6325 O.3     1  UNL1       -0.3501
      4 C         140.1574  142.5354  161.1091 C.3     1  UNL1        0.1141
      5 C         140.0904  142.2795  162.5856 C.3     1  UNL1        0.0463
      6 C         140.9449  143.0783  163.5246 C.3     1  UNL1        0.0746
      7 N         141.8663  144.1328  162.9872 N.3     1  UNL1       -0.2722
      8 C         141.9333  144.3887  161.5107 C.3     1  UNL1        0.0746
      9 C         141.0788  143.5900  160.5717 C.3     1  UNL1        0.0463
     10 C         139.2359  141.4808  161.6465 C.3     1  UNL1        0.1206
     11 N         138.3814  140.6821  160.7074 N.am    1  UNL1       -0.2748
     12 C         138.4484  140.9379  159.2309 C.2     1  UNL1        0.2529
     13 O         137.5939  140.1392  158.2917 O.2     1  UNL1       -0.2722
     14 C         142.7208  144.9316  163.9263 C.3     1  UNL1        0.0768
     15 C         143.9927  144.3464  164.4647 C.3     1  UNL1        0.0437
     16 C         144.1890  142.8593  164.4743 C.ar    1  UNL1       -0.0208
     17 C         143.4474  142.0113  165.4647 C.ar    1  UNL1       -0.0042
     18 C         143.6437  140.5243  165.4742 C.ar    1  UNL1       -0.0003
     19 C         144.5816  139.8852  164.4934 C.ar    1  UNL1       -0.0000
     20 C         145.3232  140.7333  163.5030 C.ar    1  UNL1       -0.0003
     21 C         145.1269  142.2203  163.4935 C.ar    1  UNL1       -0.0042
     22 C         137.4600  139.6275  161.2448 C.3     1  UNL1        0.0982
     23 C         137.9745  138.2420  161.5016 C.3     1  UNL1        0.0478
     24 C         139.1408  138.0337  162.4216 C.ar    1  UNL1       -0.0205
     25 C         138.9142  137.8762  163.8961 C.ar    1  UNL1       -0.0042
     26 C         140.0805  137.6679  164.8161 C.ar    1  UNL1       -0.0003
     27 C         141.4733  137.6171  164.2616 C.ar    1  UNL1       -0.0000
     28 C         141.6999  137.7745  162.7872 C.ar    1  UNL1       -0.0003
     29 C         140.5336  137.9829  161.8672 C.ar    1  UNL1       -0.0042
@<TRIPOS>BOND
     1     1     2    1
     2     2     3    1
     3     3     4    1
     4     4     5    1
     5     5     6    1
     6     6     7    1
     7     7    14    1
     8    14    15    1
     9    15    16    1
    10    16    17   ar
    11    17    18   ar
    12    18    19   ar
    13    19    20   ar
    14    20    21   ar
    15     7     8    1
    16     8     9    1
    17     4    10    1
    18    10    11    1
    19    11    22    1
    20    22    23    1
    21    23    24    1
    22    24    25   ar
    23    25    26   ar
    24    26    27   ar
    25    27    28   ar
    26    28    29   ar
    27    11    12   am
    28    12    13    2
    29    12     2    1
    30     9     4    1
    31    29    24   ar
    32    21    16   ar
@<TRIPOS>MOLECULE
*****
 29 32 0 0 0
SMALL
GASTEIGER

@<TRIPOS>ATOM
      1 C         139.4678  146.5675  161.2914 C.3     1  UNL1        0.0420
      2 C         140.3420  145.4331  161.7375 C.3     1  UNL1        0.1909
      3 O         140.1642  144.8420  163.1046 O.3     1  UNL1       -0.3501
      4 C         141.0383  143.7075  163.5507 C.3     1  UNL1        0.1141
      5 C         141.9124  142.5731  163.9968 C.3     1  UNL1        0.0463
      6 C         141.7346  141.9820  165.3638 C.3     1  UNL1        0.0746
      7 N         140.6827  142.5253  166.2849 N.3     1  UNL1       -0.2722
      8 C         139.8086  143.6597  165.8388 C.3     1  UNL1        0.0746
      9 C         139.9864  144.2508  164.4718 C.3     1  UNL1        0.0463
     10 C         142.0902  143.1642  162.6297 C.3     1  UNL1        0.1206
     11 N         142.2680  143.7553  161.2625 N.am    1  UNL1       -0.2748
     12 C         141.3939  144.8897  160.8165 C.2     1  UNL1        0.2529
     13 O         141.5717  145.4809  159.4494 O.2     1  UNL1       -0.2722
     14 C         140.5049  141.9341  167.6520 C.3     1  UNL1        0.0768
     15 C         139.8298  140.6043  167.8121 C.3     1  UNL1        0.0437
     16 C         139.9126  139.5842  166.7154 C.ar    1  UNL1       -0.0208
     17 C         141.2508  139.1055  166.2358 C.ar    1  UNL1       -0.0042
     18 C         141.3335  138.0855  165.1391 C.ar    1  UNL1       -0.0003
     19 C         140.0780  137.5443  164.5220 C.ar    1  UNL1       -0.0000
     20 C         138.7398  138.0230  165.0016 C.ar    1  UNL1       -0.0003
     21 C         138.6571  139.0430  166.0983 C.ar    1  UNL1       -0.0042
     22 C         143.3199  143.2120  160.3415 C.3     1  UNL1        0.0982
     23 C         144.6392  142.7595  160.8937 C.3     1  UNL1        0.0478
     24 C         144.6909  141.6373  161.8877 C.ar    1  UNL1       -0.0205
     25 C         143.9976  140.3405  161.5916 C.ar    1  UNL1       -0.0042
     26 C         144.0493  139.2184  162.5857 C.ar    1  UNL1       -0.0003
     27 C         144.7944  139.3930  163.8758 C.ar    1  UNL1       -0.0000
     28 C         145.4877  140.6898  164.1719 C.ar    1  UNL1       -0.0003
     29 C         145.4360  141.8120  163.1778 C.ar    1  UNL1       -0.0042
@<TRIPOS>BOND
     1     1     2    1
     2     2     3    1
     3     3     4    1
     4     4     5    1
     5     5     6    1
     6     6     7    1
     7     7    14    1
     8    14    15    1
     9    15    16    1
    10    16    17   ar
    11    17    18   ar
    12    18    19   ar
    13    19    20   ar
    14    20    21   ar
    15     7     8    1
    16     8     9    1
    17     4    10    1
    18    10    11    1
    19    11    22    1
    20    22    23    1
    21    23    24    1
    22    24    25   ar
    23    25    26   ar
    24    26    27   ar
    25    27    28   ar
    26    28    29   ar
    27    11    12   am
    28    12    13    2
    29    12     2    1
    30     9     4    1
    31    29    24   ar
    32    21    16   ar
@<TRIPOS>MOLECULE
*****
 29 32 0 0 0
SMALL
GASTEIGER

@<TRIPOS>ATOM
      1 C         144.8421  142.5320  157.9766 C.3     1  UNL1        0.0420
      2 C         143.9324  142.6784  159.1604 C.3     1  UNL1        0.1909
      3 O         144.1560  141.8430  160.3859 O.3     1  UNL1       -0.3501
      4 C         143.2463  141.9893  161.5696 C.3     1  UNL1        0.1141
      5 C         142.3366  142.1357  162.7533 C.3     1  UNL1        0.0463
      6 C         142.5602  141.3003  163.9788 C.3     1  UNL1        0.0746
      7 N         143.6935  140.3185  164.0207 N.3     1  UNL1       -0.2722
      8 C         144.6031  140.1721  162.8371 C.3     1  UNL1        0.0746
      9 C         144.3795  141.0075  161.6115 C.3     1  UNL1        0.0463
     10 C         142.1130  142.9711  161.5277 C.3     1  UNL1        0.1206
     11 N         141.8895  143.8066  160.3021 N.am    1  UNL1       -0.2748
     12 C         142.7991  143.6602  159.1184 C.2     1  UNL1        0.2529
     13 O         142.5756  144.4957  157.8928 O.2     1  UNL1       -0.2722
     14 C         143.9170  139.4830  165.2464 C.3     1  UNL1        0.0768
     15 C         142.7900  138.6764  165.8201 C.3     1  UNL1        0.0437
     16 C         141.9403  139.2484  166.9159 C.ar    1  UNL1       -0.0208
     17 C         142.4966  139.3860  168.3021 C.ar    1  UNL1       -0.0042
     18 C         141.6469  139.9579  169.3979 C.ar    1  UNL1       -0.0003
     19 C         140.2409  140.3924  169.1075 C.ar    1  UNL1       -0.0000
     20 C         139.6845  140.2549  167.7213 C.ar    1  UNL1       -0.0003
     21 C         140.5342  139.6829  166.6255 C.ar    1  UNL1       -0.0042
     22 C         140.7562  144.7884  160.2602 C.3     1  UNL1        0.0982
     23 C         140.3119  145.4752  161.5176 C.3     1  UNL1        0.0478
     24 C         139.5039  144.7265  162.5357 C.ar    1  UNL1       -0.0205
     25 C         138.5053  143.6987  162.0923 C.ar    1  UNL1       -0.0042
     26 C         137.6972  142.9500  163.1104 C.ar    1  UNL1       -0.0003
     27 C         137.8878  143.2290  164.5719 C.ar    1  UNL1       -0.0000
     28 C         138.8864  144.2568  165.0152 C.ar    1  UNL1       -0.0003
     29 C         139.6944  145.0055  163.9971 C.ar    1  UNL1       -0.0042
@<TRIPOS>BOND
     1     1     2    1
     2     2     3    1
     3     3     4    1
     4     4     5    1
     5     5     6    1
     6     6     7    1
     7     7    14    1
     8    14    15    1
     9    15    16    1
    10    16    17   ar
    11    17    18   ar
    12    18    19   ar
    13    19    20   ar
    14    20    21   ar
    15     7     8    1
    16     8     9    1
    17     4    10    1
    18    10    11    1
    19    11    22    1
    20    22    23    1
    21    23    24    1
    22    24    25   ar
    23    25    26   ar
    24    26    27   ar
    25    27    28   ar
    26    28    29   ar
    27    11    12   am
    28    12    13    2
    29    12     2    1
    30     9     4    1
    31    29    24   ar
    32    21    16   ar
@<TRIPOS>MOLECULE
*****
 29 32 0 0 0
SMALL
GASTEIGER

@<TRIPOS>ATOM
      1 C         141.8336  141.0996  169.7540 C.3     1  UNL1        0.0420
      2 C         142.0718  141.1780  168.2750 C.3     1  UNL1        0.1909
      3 O         141.2338  140.3618  167.3361 O.3     1  UNL1       -0.3501
      4 C         141.4720  140.4402  165.8572 C.3     1  UNL1        0.1141
      5 C         141.7102  140.5186  164.3783 C.3     1  UNL1        0.0463
      6 C         140.8721  139.7025  163.4394 C.3     1  UNL1        0.0746
      7 N         139.7959  138.8080  163.9794 N.3     1  UNL1       -0.2722
      8 C         139.5577  138.7296  165.4582 C.3     1  UNL1        0.0746
      9 C         140.3957  139.5457  166.3971 C.3     1  UNL1        0.0463
     10 C         142.5482  141.3347  165.3172 C.3     1  UNL1        0.1206
     11 N         143.3863  142.1508  166.2562 N.am    1  UNL1       -0.2748
     12 C         143.1480  142.0725  167.7351 C.2     1  UNL1        0.2529
     13 O         143.9861  142.8886  168.6741 O.2     1  UNL1       -0.2722
     14 C         138.9578  137.9918  163.0403 C.3     1  UNL1        0.0768
     15 C         138.0274  138.6727  162.0809 C.3     1  UNL1        0.0437
     16 C         137.9969  140.1703  162.0006 C.ar    1  UNL1       -0.0208
     17 C         137.5154  140.9744  163.1718 C.ar    1  UNL1       -0.0042
     18 C         137.4849  142.4719  163.0915 C.ar    1  UNL1       -0.0003
     19 C         137.9358  143.1653  161.8402 C.ar    1  UNL1       -0.0000
     20 C         138.4173  142.3612  160.6690 C.ar    1  UNL1       -0.0003
     21 C         138.4478  140.8637  160.7493 C.ar    1  UNL1       -0.0042
     22 C         144.4625  143.0453  165.7163 C.3     1  UNL1        0.0982
     23 C         144.1012  144.3591  165.0889 C.3     1  UNL1        0.0478
     24 C         143.2339  144.3927  163.8655 C.ar    1  UNL1       -0.0205
     25 C         143.6744  143.6918  162.6145 C.ar    1  UNL1       -0.0042
     26 C         142.8071  143.7254  161.3911 C.ar    1  UNL1       -0.0003
     27 C         141.4995  144.4598  161.4187 C.ar    1  UNL1       -0.0000
     28 C         141.0591  145.1607  162.6696 C.ar    1  UNL1       -0.0003
     29 C         141.9263  145.1271  163.8930 C.ar    1  UNL1       -0.0042
@<TRIPOS>BOND
     1     1     2    1
     2     2     3    1
     3     3     4    1
     4     4     5    1
     5     5     6    1
     6     6     7    1
     7     7    14    1
     8    14    15    1
     9    15    16    1
    10    16    17   ar
    11    17    18   ar
    12    18    19   ar
    13    19    20   ar
    14    20    21   ar
    15     7     8    1
    16     8     9    1
    17     4    10    1
    18    10    11    1
    19    11    22    1
    20    22    23    1
    21    23    24    1
    22    24    25   ar
    23    25    26   ar
    24    26    27   ar
    25    27    28   ar
    26    28    29   ar
    27    11    12   am
    28    12    13    2
    29    12     2    1
    30     9     4    1
    31    29    24   ar
    32    21    16   ar
