@<TRIPOS>MOLECULE
*****
 37 41 0 0 0
SMALL
GASTEIGER

@<TRIPOS>ATOM
      1 O         141.7422  138.5809  157.9604 O.2     1  UNL1       -0.2733
      2 C         142.6118  137.3587  157.9482 C.2     1  UNL1        0.2425
      3 N         143.2755  136.8978  159.2120 N.am    1  UNL1       -0.3018
      4 H         143.8462  136.0957  159.2040 H       1  UNL1        0.1495
      5 C         143.0694  137.6591  160.4880 C.3     1  UNL1        0.1035
      6 C         143.8838  138.6353  161.2839 C.3     1  UNL1        0.0933
      7 N         142.7780  138.7356  162.2924 N.3     1  UNL1       -0.2711
      8 C         141.9636  137.7593  161.4965 C.3     1  UNL1        0.0933
      9 C         142.5720  139.4968  163.5684 C.3     1  UNL1        0.0576
     10 C         141.8735  140.8240  163.5454 C.3     1  UNL1        0.0163
     11 C         141.6674  141.5853  164.8214 C.3     1  UNL1        0.0057
     12 C         142.1598  141.0193  166.1203 C.3     1  UNL1        0.0224
     13 C         142.8584  139.6921  166.1432 C.3     1  UNL1        0.0057
     14 C         143.0644  138.9309  164.8673 C.3     1  UNL1        0.0163
     15 C         141.9538  141.7806  167.3962 C.ar    1  UNL1       -0.0225
     16 C         140.6451  142.4655  167.6580 C.ar    1  UNL1       -0.0043
     17 C         140.4391  143.2267  168.9339 C.ar    1  UNL1       -0.0003
     18 C         141.5416  143.3030  169.9481 C.ar    1  UNL1       -0.0000
     19 C         142.8501  142.6181  169.6864 C.ar    1  UNL1       -0.0003
     20 C         143.0563  141.8569  168.4104 C.ar    1  UNL1       -0.0043
     21 C         142.8178  136.5975  156.6722 C.3     1  UNL1        0.1747
     22 N         142.2074  135.2378  156.5031 N.pl3   1  UNL1       -0.3106
     23 H         141.2944  135.1492  156.1456 H       1  UNL1        0.1486
     24 C         142.9880  134.0132  156.8788 C.ar    1  UNL1        0.1320
     25 N         144.1383  134.1212  157.8354 N.ar    1  UNL1       -0.2092
     26 C         144.9188  132.8967  158.2110 C.ar    1  UNL1        0.2000
     27 N         144.5491  131.5641  157.6301 N.ar    1  UNL1       -0.2239
     28 C         143.3988  131.4561  156.6735 C.ar    1  UNL1        0.0857
     29 C         143.0290  130.1235  156.0925 C.ar    1  UNL1        0.0192
     30 C         141.8787  130.0155  155.1359 C.ar    1  UNL1        0.0054
     31 C         141.0981  131.2401  154.7602 C.ar    1  UNL1        0.0716
     32 C         141.4679  132.5727  155.3412 C.ar    1  UNL1        0.0081
     33 C         142.6182  132.6807  156.2978 C.ar    1  UNL1        0.0491
     34 C         139.9478  131.1321  153.8036 C.3     1  UNL1        0.4186
     35 F         138.7975  131.0241  152.8469 F       1  UNL1       -0.1659
     36 F         139.1477  130.4105  154.8472 F       1  UNL1       -0.1659
     37 F         140.7479  131.8537  152.7601 F       1  UNL1       -0.1659
@<TRIPOS>BOND
     1     1     2    2
     2     2    21    1
     3    21    22    1
     4    22    24    1
     5    24    25   ar
     6    25    26   ar
     7    26    27   ar
     8    27    28   ar
     9    28    29   ar
    10    29    30   ar
    11    30    31   ar
    12    31    34    1
    13    34    35    1
    14    34    36    1
    15    34    37    1
    16    31    32   ar
    17    32    33   ar
    18     2     3   am
    19     3     5    1
    20     5     6    1
    21     6     7    1
    22     9     7    1
    23     9    10    1
    24    10    11    1
    25    11    12    1
    26    12    15    1
    27    15    16   ar
    28    16    17   ar
    29    17    18   ar
    30    18    19   ar
    31    19    20   ar
    32    12    13    1
    33    13    14    1
    34     7     8    1
    35    33    24   ar
    36     8     5    1
    37    33    28   ar
    38    14     9    1
    39    20    15   ar
    40    22    23    1
    41     3     4    1
@<TRIPOS>MOLECULE
*****
 37 41 0 0 0
SMALL
GASTEIGER

@<TRIPOS>ATOM
      1 O         139.0449  139.7514  158.6789 O.2     1  UNL1       -0.2733
      2 C         139.1502  139.9195  160.1658 C.2     1  UNL1        0.2425
      3 N         140.4393  140.3801  160.7790 N.am    1  UNL1       -0.3018
      4 H         140.5085  140.4904  161.7548 H       1  UNL1        0.1495
      5 C         141.6231  140.6726  159.9053 C.3     1  UNL1        0.1035
      6 C         141.9224  141.6666  158.8227 C.3     1  UNL1        0.0933
      7 N         143.2972  141.0862  158.6699 N.3     1  UNL1       -0.2711
      8 C         142.9978  140.0922  159.7526 C.3     1  UNL1        0.0933
      9 C         144.4809  141.3787  157.7963 C.3     1  UNL1        0.0576
     10 C         145.4707  142.4303  158.2018 C.3     1  UNL1        0.0163
     11 C         146.6545  142.7229  157.3282 C.3     1  UNL1        0.0057
     12 C         146.8484  141.9638  156.0491 C.3     1  UNL1        0.0224
     13 C         145.8586  140.9121  155.6436 C.3     1  UNL1        0.0057
     14 C         144.6749  140.6196  156.5172 C.3     1  UNL1        0.0163
     15 C         148.0322  142.2562  155.1755 C.ar    1  UNL1       -0.0225
     16 C         147.8815  143.1560  153.9847 C.ar    1  UNL1       -0.0043
     17 C         149.0652  143.4484  153.1112 C.ar    1  UNL1       -0.0003
     18 C         150.3996  142.8413  153.4283 C.ar    1  UNL1       -0.0000
     19 C         150.5504  141.9416  154.6190 C.ar    1  UNL1       -0.0003
     20 C         149.3666  141.6491  155.4926 C.ar    1  UNL1       -0.0043
     21 C         137.9665  139.6270  161.0393 C.3     1  UNL1        0.1747
     22 N         137.3880  140.7069  161.9049 N.pl3   1  UNL1       -0.3106
     23 H         136.4191  140.8811  161.8929 H       1  UNL1        0.1486
     24 C         138.2857  141.5212  162.7886 C.ar    1  UNL1        0.1320
     25 N         138.8178  142.8384  162.3073 N.ar    1  UNL1       -0.2092
     26 C         139.7155  143.6527  163.1910 C.ar    1  UNL1        0.2000
     27 N         140.0811  143.1498  164.5561 N.ar    1  UNL1       -0.2239
     28 C         139.5489  141.8326  165.0375 C.ar    1  UNL1        0.0857
     29 C         139.9145  141.3297  166.4025 C.ar    1  UNL1        0.0192
     30 C         139.3823  140.0125  166.8839 C.ar    1  UNL1        0.0054
     31 C         138.4846  139.1981  166.0001 C.ar    1  UNL1        0.0716
     32 C         138.1190  139.7010  164.6350 C.ar    1  UNL1        0.0081
     33 C         138.6512  141.0183  164.1537 C.ar    1  UNL1        0.0491
     34 C         137.9524  137.8809  166.4815 C.3     1  UNL1        0.4186
     35 F         137.4203  136.5636  166.9628 F       1  UNL1       -0.1659
     36 F         137.1875  138.5850  167.5627 F       1  UNL1       -0.1659
     37 F         138.7173  137.1768  165.4002 F       1  UNL1       -0.1659
@<TRIPOS>BOND
     1     1     2    2
     2     2    21    1
     3    21    22    1
     4    22    24    1
     5    24    25   ar
     6    25    26   ar
     7    26    27   ar
     8    27    28   ar
     9    28    29   ar
    10    29    30   ar
    11    30    31   ar
    12    31    34    1
    13    34    35    1
    14    34    36    1
    15    34    37    1
    16    31    32   ar
    17    32    33   ar
    18     2     3   am
    19     3     5    1
    20     5     6    1
    21     6     7    1
    22     9     7    1
    23     9    10    1
    24    10    11    1
    25    11    12    1
    26    12    15    1
    27    15    16   ar
    28    16    17   ar
    29    17    18   ar
    30    18    19   ar
    31    19    20   ar
    32    12    13    1
    33    13    14    1
    34     7     8    1
    35    33    24   ar
    36     8     5    1
    37    33    28   ar
    38    14     9    1
    39    20    15   ar
    40    22    23    1
    41     3     4    1
@<TRIPOS>MOLECULE
*****
 37 41 0 0 0
SMALL
GASTEIGER

@<TRIPOS>ATOM
      1 O         141.5840  139.0307  158.2248 O.2     1  UNL1       -0.2733
      2 C         142.9897  139.1147  157.7080 C.2     1  UNL1        0.2425
      3 N         144.0871  139.6185  158.5978 N.am    1  UNL1       -0.3018
      4 H         145.0097  139.6736  158.2586 H       1  UNL1        0.1495
      5 C         143.7788  140.0384  160.0045 C.3     1  UNL1        0.1035
      6 C         144.0113  139.4467  161.3631 C.3     1  UNL1        0.0933
      7 N         143.3428  140.6322  161.9938 N.3     1  UNL1       -0.2711
      8 C         143.1103  141.2239  160.6352 C.3     1  UNL1        0.0933
      9 C         143.0345  141.0521  163.4004 C.3     1  UNL1        0.0576
     10 C         141.7320  140.6590  164.0320 C.3     1  UNL1        0.0163
     11 C         141.4237  141.0789  165.4387 C.3     1  UNL1        0.0057
     12 C         142.4178  141.8919  166.2137 C.3     1  UNL1        0.0224
     13 C         143.7204  142.2850  165.5820 C.3     1  UNL1        0.0057
     14 C         144.0287  141.8651  164.1754 C.3     1  UNL1        0.0163
     15 C         142.1095  142.3118  167.6203 C.ar    1  UNL1       -0.0225
     16 C         143.1948  142.3191  168.6558 C.ar    1  UNL1       -0.0043
     17 C         142.8865  142.7390  170.0624 C.ar    1  UNL1       -0.0003
     18 C         141.4930  143.1516  170.4336 C.ar    1  UNL1       -0.0000
     19 C         140.4077  143.1444  169.3982 C.ar    1  UNL1       -0.0003
     20 C         140.7160  142.7244  167.9915 C.ar    1  UNL1       -0.0043
     21 C         143.2979  138.6948  156.3013 C.3     1  UNL1        0.1747
     22 N         143.7782  137.3013  156.0227 N.pl3   1  UNL1       -0.3106
     23 H         144.5298  136.9276  156.5372 H       1  UNL1        0.1486
     24 C         143.1132  136.4773  154.9602 C.ar    1  UNL1        0.1320
     25 N         142.3409  137.1490  153.8637 N.ar    1  UNL1       -0.2092
     26 C         141.6760  136.3249  152.8013 C.ar    1  UNL1        0.2000
     27 N         141.7835  134.8291  152.8353 N.ar    1  UNL1       -0.2239
     28 C         142.5558  134.1574  153.9318 C.ar    1  UNL1        0.0857
     29 C         142.6633  132.6617  153.9658 C.ar    1  UNL1        0.0192
     30 C         143.4356  131.9900  155.0622 C.ar    1  UNL1        0.0054
     31 C         144.1006  132.8141  156.1248 C.ar    1  UNL1        0.0716
     32 C         143.9931  134.3098  156.0907 C.ar    1  UNL1        0.0081
     33 C         143.2207  134.9815  154.9942 C.ar    1  UNL1        0.0491
     34 C         144.8729  132.1424  157.2212 C.3     1  UNL1        0.4186
     35 F         145.6453  131.4706  158.3177 F       1  UNL1       -0.1659
     36 F         144.4475  133.2159  158.1785 F       1  UNL1       -0.1659
     37 F         145.2983  131.0688  156.2639 F       1  UNL1       -0.1659
@<TRIPOS>BOND
     1     1     2    2
     2     2    21    1
     3    21    22    1
     4    22    24    1
     5    24    25   ar
     6    25    26   ar
     7    26    27   ar
     8    27    28   ar
     9    28    29   ar
    10    29    30   ar
    11    30    31   ar
    12    31    34    1
    13    34    35    1
    14    34    36    1
    15    34    37    1
    16    31    32   ar
    17    32    33   ar
    18     2     3   am
    19     3     5    1
    20     5     6    1
    21     6     7    1
    22     9     7    1
    23     9    10    1
    24    10    11    1
    25    11    12    1
    26    12    15    1
    27    15    16   ar
    28    16    17   ar
    29    17    18   ar
    30    18    19   ar
    31    19    20   ar
    32    12    13    1
    33    13    14    1
    34     7     8    1
    35    33    24   ar
    36     8     5    1
    37    33    28   ar
    38    14     9    1
    39    20    15   ar
    40    22    23    1
    41     3     4    1
@<TRIPOS>MOLECULE
*****
 37 41 0 0 0
SMALL
GASTEIGER

@<TRIPOS>ATOM
      1 O         143.4540  140.1619  157.3642 O.2     1  UNL1       -0.2733
      2 C         143.3299  138.7579  156.8506 C.2     1  UNL1        0.2425
      3 N         142.9274  137.6520  157.7807 N.am    1  UNL1       -0.3018
      4 H         142.8459  136.7306  157.4437 H       1  UNL1        0.1495
      5 C         142.6491  137.9500  159.2242 C.3     1  UNL1        0.1035
      6 C         143.3678  137.6995  160.5167 C.3     1  UNL1        0.0933
      7 N         142.2554  138.3715  161.2657 N.3     1  UNL1       -0.2711
      8 C         141.5366  138.6220  159.9732 C.3     1  UNL1        0.0933
      9 C         141.9771  138.6695  162.7091 C.3     1  UNL1        0.0576
     10 C         141.3888  137.6105  163.5937 C.3     1  UNL1        0.0163
     11 C         141.1104  137.9085  165.0372 C.3     1  UNL1        0.0057
     12 C         141.4203  139.2656  165.5962 C.3     1  UNL1        0.0224
     13 C         142.0086  140.3246  164.7116 C.3     1  UNL1        0.0057
     14 C         142.2870  140.0266  163.2681 C.3     1  UNL1        0.0163
     15 C         141.1420  139.5636  167.0396 C.ar    1  UNL1       -0.0225
     16 C         139.7608  139.9591  167.4710 C.ar    1  UNL1       -0.0043
     17 C         139.4825  140.2572  168.9145 C.ar    1  UNL1       -0.0003
     18 C         140.5852  140.1597  169.9266 C.ar    1  UNL1       -0.0000
     19 C         141.9663  139.7642  169.4953 C.ar    1  UNL1       -0.0003
     20 C         142.2447  139.4661  168.0518 C.ar    1  UNL1       -0.0043
     21 C         143.6082  138.4600  155.4072 C.3     1  UNL1        0.1747
     22 N         144.0051  137.0748  154.9902 N.pl3   1  UNL1       -0.3106
     23 H         144.9483  136.7971  155.0396 H       1  UNL1        0.1486
     24 C         142.9648  136.1127  154.4980 C.ar    1  UNL1        0.1320
     25 N         141.9445  136.5603  153.4937 N.ar    1  UNL1       -0.2092
     26 C         140.9043  135.5983  153.0016 C.ar    1  UNL1        0.2000
     27 N         140.8843  134.1885  153.5137 N.ar    1  UNL1       -0.2239
     28 C         141.9046  133.7409  154.5180 C.ar    1  UNL1        0.0857
     29 C         141.8846  132.3311  155.0301 C.ar    1  UNL1        0.0192
     30 C         142.9049  131.8835  156.0343 C.ar    1  UNL1        0.0054
     31 C         143.9452  132.8456  156.5265 C.ar    1  UNL1        0.0716
     32 C         143.9652  134.2553  156.0144 C.ar    1  UNL1        0.0081
     33 C         142.9448  134.7030  155.0101 C.ar    1  UNL1        0.0491
     34 C         144.9655  132.3980  157.5308 C.3     1  UNL1        0.4186
     35 F         145.9858  131.9503  158.5352 F       1  UNL1       -0.1659
     36 F         145.4097  131.3125  156.5957 F       1  UNL1       -0.1659
     37 F         144.5213  133.4834  158.4659 F       1  UNL1       -0.1659
@<TRIPOS>BOND
     1     1     2    2
     2     2    21    1
     3    21    22    1
     4    22    24    1
     5    24    25   ar
     6    25    26   ar
     7    26    27   ar
     8    27    28   ar
     9    28    29   ar
    10    29    30   ar
    11    30    31   ar
    12    31    34    1
    13    34    35    1
    14    34    36    1
    15    34    37    1
    16    31    32   ar
    17    32    33   ar
    18     2     3   am
    19     3     5    1
    20     5     6    1
    21     6     7    1
    22     9     7    1
    23     9    10    1
    24    10    11    1
    25    11    12    1
    26    12    15    1
    27    15    16   ar
    28    16    17   ar
    29    17    18   ar
    30    18    19   ar
    31    19    20   ar
    32    12    13    1
    33    13    14    1
    34     7     8    1
    35    33    24   ar
    36     8     5    1
    37    33    28   ar
    38    14     9    1
    39    20    15   ar
    40    22    23    1
    41     3     4    1
@<TRIPOS>MOLECULE
*****
 37 41 0 0 0
SMALL
GASTEIGER

@<TRIPOS>ATOM
      1 O         143.9760  139.6162  158.5403 O.2     1  UNL1       -0.2733
      2 C         142.9560  138.7490  157.8637 C.2     1  UNL1        0.2425
      3 N         141.7055  138.3544  158.5921 N.am    1  UNL1       -0.3018
      4 H         141.0360  137.7852  158.1481 H       1  UNL1        0.1495
      5 C         141.4749  138.8270  159.9969 C.3     1  UNL1        0.1035
      6 C         140.9738  140.0958  160.6204 C.3     1  UNL1        0.0933
      7 N         141.1490  139.4952  161.9837 N.3     1  UNL1       -0.2711
      8 C         141.6501  138.2263  161.3602 C.3     1  UNL1        0.0933
      9 C         140.9185  139.9678  163.3885 C.3     1  UNL1        0.0576
     10 C         142.0327  140.6187  164.1531 C.3     1  UNL1        0.0163
     11 C         141.8022  141.0913  165.5580 C.3     1  UNL1        0.0057
     12 C         140.4575  140.9129  166.1982 C.3     1  UNL1        0.0224
     13 C         139.3433  140.2618  165.4335 C.3     1  UNL1        0.0057
     14 C         139.5738  139.7893  164.0287 C.3     1  UNL1        0.0163
     15 C         140.2270  141.3854  167.6030 C.ar    1  UNL1       -0.0225
     16 C         140.6090  142.7815  167.9969 C.ar    1  UNL1       -0.0043
     17 C         140.3785  143.2540  169.4018 C.ar    1  UNL1       -0.0003
     18 C         139.7660  142.3305  170.4127 C.ar    1  UNL1       -0.0000
     19 C         139.3841  140.9345  170.0189 C.ar    1  UNL1       -0.0003
     20 C         139.6145  140.4619  168.6140 C.ar    1  UNL1       -0.0043
     21 C         143.1866  138.2764  156.4589 C.3     1  UNL1        0.1747
     22 N         143.6837  136.8836  156.2082 N.pl3   1  UNL1       -0.3106
     23 H         144.4027  136.5095  156.7671 H       1  UNL1        0.1486
     24 C         143.0853  136.0607  155.1060 C.ar    1  UNL1        0.1320
     25 N         142.3412  136.7307  153.9891 N.ar    1  UNL1       -0.2092
     26 C         141.7429  135.9078  152.8869 C.ar    1  UNL1        0.2000
     27 N         141.8886  134.4150  152.9016 N.ar    1  UNL1       -0.2239
     28 C         142.6327  133.7450  154.0185 C.ar    1  UNL1        0.0857
     29 C         142.7784  132.2522  154.0332 C.ar    1  UNL1        0.0192
     30 C         143.5225  131.5822  155.1501 C.ar    1  UNL1        0.0054
     31 C         144.1209  132.4051  156.2523 C.ar    1  UNL1        0.0716
     32 C         143.9751  133.8979  156.2376 C.ar    1  UNL1        0.0081
     33 C         143.2310  134.5679  155.1207 C.ar    1  UNL1        0.0491
     34 C         144.8649  131.7351  157.3692 C.3     1  UNL1        0.4186
     35 F         145.6090  131.0651  158.4861 F       1  UNL1       -0.1659
     36 F         145.1215  133.0716  158.0000 F       1  UNL1       -0.1659
     37 F         144.6084  130.3986  156.7384 F       1  UNL1       -0.1659
@<TRIPOS>BOND
     1     1     2    2
     2     2    21    1
     3    21    22    1
     4    22    24    1
     5    24    25   ar
     6    25    26   ar
     7    26    27   ar
     8    27    28   ar
     9    28    29   ar
    10    29    30   ar
    11    30    31   ar
    12    31    34    1
    13    34    35    1
    14    34    36    1
    15    34    37    1
    16    31    32   ar
    17    32    33   ar
    18     2     3   am
    19     3     5    1
    20     5     6    1
    21     6     7    1
    22     9     7    1
    23     9    10    1
    24    10    11    1
    25    11    12    1
    26    12    15    1
    27    15    16   ar
    28    16    17   ar
    29    17    18   ar
    30    18    19   ar
    31    19    20   ar
    32    12    13    1
    33    13    14    1
    34     7     8    1
    35    33    24   ar
    36     8     5    1
    37    33    28   ar
    38    14     9    1
    39    20    15   ar
    40    22    23    1
    41     3     4    1
@<TRIPOS>MOLECULE
*****
 37 41 0 0 0
SMALL
GASTEIGER

@<TRIPOS>ATOM
      1 O         137.3858  142.6661  157.6842 O.2     1  UNL1       -0.2733
      2 C         137.0243  141.2507  157.3433 C.2     1  UNL1        0.2425
      3 N         137.2846  140.1517  158.3304 N.am    1  UNL1       -0.3018
      4 H         137.0474  139.2227  158.1067 H       1  UNL1        0.1495
      5 C         137.9064  140.4680  159.6584 C.3     1  UNL1        0.1035
      6 C         139.1863  141.1104  160.1042 C.3     1  UNL1        0.0933
      7 N         138.7856  140.9153  161.5364 N.3     1  UNL1       -0.2711
      8 C         137.5055  140.2729  161.0906 C.3     1  UNL1        0.0933
      9 C         139.4072  141.2316  162.8643 C.3     1  UNL1        0.0576
     10 C         140.2396  140.2007  163.5674 C.3     1  UNL1        0.0163
     11 C         140.8613  140.5170  164.8954 C.3     1  UNL1        0.0057
     12 C         140.6506  141.8642  165.5203 C.3     1  UNL1        0.0224
     13 C         139.8182  142.8952  164.8172 C.3     1  UNL1        0.0057
     14 C         139.1965  142.5789  163.4893 C.3     1  UNL1        0.0163
     15 C         141.2723  142.1805  166.8482 C.ar    1  UNL1       -0.0225
     16 C         140.4234  142.7066  167.9675 C.ar    1  UNL1       -0.0043
     17 C         141.0451  143.0229  169.2954 C.ar    1  UNL1       -0.0003
     18 C         142.5156  142.8131  169.5041 C.ar    1  UNL1       -0.0000
     19 C         143.3645  142.2871  168.3849 C.ar    1  UNL1       -0.0003
     20 C         142.7428  141.9708  167.0569 C.ar    1  UNL1       -0.0043
     21 C         136.4026  140.9344  156.0154 C.3     1  UNL1        0.1747
     22 N         134.9554  141.2447  155.7719 N.pl3   1  UNL1       -0.3106
     23 H         134.7045  141.9736  155.1595 H       1  UNL1        0.1486
     24 C         133.8904  140.4445  156.4615 C.ar    1  UNL1        0.1320
     25 N         134.2703  139.4096  157.4786 N.ar    1  UNL1       -0.2092
     26 C         133.2053  138.6094  158.1682 C.ar    1  UNL1        0.2000
     27 N         131.7605  138.8442  157.8406 N.ar    1  UNL1       -0.2239
     28 C         131.3806  139.8791  156.8235 C.ar    1  UNL1        0.0857
     29 C         129.9357  140.1138  156.4960 C.ar    1  UNL1        0.0192
     30 C         129.5559  141.1488  155.4788 C.ar    1  UNL1        0.0054
     31 C         130.6208  141.9490  154.7892 C.ar    1  UNL1        0.0716
     32 C         132.0657  141.7143  155.1168 C.ar    1  UNL1        0.0081
     33 C         132.4456  140.6793  156.1340 C.ar    1  UNL1        0.0491
     34 C         130.2410  142.9839  153.7721 C.3     1  UNL1        0.4186
     35 F         129.8611  144.0189  152.7549 F       1  UNL1       -0.1659
     36 F         130.0795  143.9987  154.8649 F       1  UNL1       -0.1659
     37 F         130.4024  141.9692  152.6793 F       1  UNL1       -0.1659
@<TRIPOS>BOND
     1     1     2    2
     2     2    21    1
     3    21    22    1
     4    22    24    1
     5    24    25   ar
     6    25    26   ar
     7    26    27   ar
     8    27    28   ar
     9    28    29   ar
    10    29    30   ar
    11    30    31   ar
    12    31    34    1
    13    34    35    1
    14    34    36    1
    15    34    37    1
    16    31    32   ar
    17    32    33   ar
    18     2     3   am
    19     3     5    1
    20     5     6    1
    21     6     7    1
    22     9     7    1
    23     9    10    1
    24    10    11    1
    25    11    12    1
    26    12    15    1
    27    15    16   ar
    28    16    17   ar
    29    17    18   ar
    30    18    19   ar
    31    19    20   ar
    32    12    13    1
    33    13    14    1
    34     7     8    1
    35    33    24   ar
    36     8     5    1
    37    33    28   ar
    38    14     9    1
    39    20    15   ar
    40    22    23    1
    41     3     4    1
@<TRIPOS>MOLECULE
*****
 37 41 0 0 0
SMALL
GASTEIGER

@<TRIPOS>ATOM
      1 O         144.1040  139.6202  159.2572 O.2     1  UNL1       -0.2733
      2 C         143.7872  140.4910  158.0775 C.2     1  UNL1        0.2425
      3 N         143.3345  139.8718  156.7884 N.am    1  UNL1       -0.3018
      4 H         143.1266  140.4433  156.0141 H       1  UNL1        0.1495
      5 C         143.1986  138.3819  156.6790 C.3     1  UNL1        0.1035
      6 C         142.4968  137.3198  157.4721 C.3     1  UNL1        0.0933
      7 N         143.0065  136.2750  156.5242 N.3     1  UNL1       -0.2711
      8 C         143.7084  137.3372  155.7310 C.3     1  UNL1        0.0933
      9 C         142.8706  134.7852  156.4147 C.3     1  UNL1        0.0576
     10 C         143.7271  133.8899  157.2601 C.3     1  UNL1        0.0163
     11 C         143.5913  132.4001  157.1507 C.3     1  UNL1        0.0057
     12 C         142.5989  131.8056  156.1958 C.3     1  UNL1        0.0224
     13 C         141.7424  132.7010  155.3504 C.3     1  UNL1        0.0057
     14 C         141.8783  134.1908  155.4598 C.3     1  UNL1        0.0163
     15 C         142.4631  130.3158  156.0864 C.ar    1  UNL1       -0.0225
     16 C         141.4739  129.7212  155.1281 C.ar    1  UNL1       -0.0043
     17 C         141.3381  128.2315  155.0186 C.ar    1  UNL1       -0.0003
     18 C         142.1913  127.3361  155.8674 C.ar    1  UNL1       -0.0000
     19 C         143.1804  127.9306  156.8256 C.ar    1  UNL1       -0.0003
     20 C         143.3163  129.4205  156.9351 C.ar    1  UNL1       -0.0043
     21 C         143.9231  141.9807  158.1869 C.3     1  UNL1        0.1747
     22 N         143.7469  142.6543  159.5156 N.pl3   1  UNL1       -0.3106
     23 H         144.4557  142.5935  160.1961 H       1  UNL1        0.1486
     24 C         142.4908  143.4206  159.8072 C.ar    1  UNL1        0.1320
     25 N         141.4606  143.6087  158.7334 N.ar    1  UNL1       -0.2092
     26 C         140.2045  144.3749  159.0251 C.ar    1  UNL1        0.2000
     27 N         139.9786  144.9531  160.3906 N.ar    1  UNL1       -0.2239
     28 C         141.0088  144.7649  161.4645 C.ar    1  UNL1        0.0857
     29 C         140.7830  145.3431  162.8301 C.ar    1  UNL1        0.0192
     30 C         141.8132  145.1549  163.9039 C.ar    1  UNL1        0.0054
     31 C         143.0693  144.3887  163.6123 C.ar    1  UNL1        0.0716
     32 C         143.2952  143.8106  162.2467 C.ar    1  UNL1        0.0081
     33 C         142.2649  143.9987  161.1728 C.ar    1  UNL1        0.0491
     34 C         144.0996  144.2006  164.6861 C.3     1  UNL1        0.4186
     35 F         145.1298  144.0124  165.7600 F       1  UNL1       -0.1659
     36 F         144.1724  145.6866  164.8765 F       1  UNL1       -0.1659
     37 F         144.0267  142.7145  164.4957 F       1  UNL1       -0.1659
@<TRIPOS>BOND
     1     1     2    2
     2     2    21    1
     3    21    22    1
     4    22    24    1
     5    24    25   ar
     6    25    26   ar
     7    26    27   ar
     8    27    28   ar
     9    28    29   ar
    10    29    30   ar
    11    30    31   ar
    12    31    34    1
    13    34    35    1
    14    34    36    1
    15    34    37    1
    16    31    32   ar
    17    32    33   ar
    18     2     3   am
    19     3     5    1
    20     5     6    1
    21     6     7    1
    22     9     7    1
    23     9    10    1
    24    10    11    1
    25    11    12    1
    26    12    15    1
    27    15    16   ar
    28    16    17   ar
    29    17    18   ar
    30    18    19   ar
    31    19    20   ar
    32    12    13    1
    33    13    14    1
    34     7     8    1
    35    33    24   ar
    36     8     5    1
    37    33    28   ar
    38    14     9    1
    39    20    15   ar
    40    22    23    1
    41     3     4    1
@<TRIPOS>MOLECULE
*****
 37 41 0 0 0
SMALL
GASTEIGER

@<TRIPOS>ATOM
      1 O         137.9999  139.9199  158.0008 O.2     1  UNL1       -0.2733
      2 C         138.8433  141.1325  157.7397 C.2     1  UNL1        0.2425
      3 N         140.2097  140.9807  157.1398 N.am    1  UNL1       -0.3018
      4 H         140.7633  141.7765  156.9685 H       1  UNL1        0.1495
      5 C         140.7326  139.6161  156.8010 C.3     1  UNL1        0.1035
      6 C         141.1960  138.4307  157.5945 C.3     1  UNL1        0.0933
      7 N         141.4721  137.6865  156.3217 N.3     1  UNL1       -0.2711
      8 C         141.0087  138.8721  155.5281 C.3     1  UNL1        0.0933
      9 C         141.9950  136.3221  155.9828 C.3     1  UNL1        0.0576
     10 C         141.4416  135.5785  154.8035 C.3     1  UNL1        0.0163
     11 C         141.9645  134.2140  154.4645 C.3     1  UNL1        0.0057
     12 C         143.0407  133.5932  155.3049 C.3     1  UNL1        0.0224
     13 C         143.5941  134.3368  156.4843 C.3     1  UNL1        0.0057
     14 C         143.0712  135.7013  156.8232 C.3     1  UNL1        0.0163
     15 C         143.5636  132.2287  154.9660 C.ar    1  UNL1       -0.0225
     16 C         143.2337  131.6068  153.6415 C.ar    1  UNL1       -0.0043
     17 C         143.7566  130.2423  153.3026 C.ar    1  UNL1       -0.0003
     18 C         144.6094  129.4998  154.2882 C.ar    1  UNL1       -0.0000
     19 C         144.9392  130.1217  155.6127 C.ar    1  UNL1       -0.0003
     20 C         144.4164  131.4862  155.9517 C.ar    1  UNL1       -0.0043
     21 C         138.3204  142.4969  158.0786 C.3     1  UNL1        0.1747
     22 N         138.5527  143.0712  159.4447 N.pl3   1  UNL1       -0.3106
     23 H         137.7967  143.1884  160.0645 H       1  UNL1        0.1486
     24 C         139.9367  143.4669  159.8666 C.ar    1  UNL1        0.1320
     25 N         141.0695  143.3930  158.8862 N.ar    1  UNL1       -0.2092
     26 C         142.4535  143.7887  159.3081 C.ar    1  UNL1        0.2000
     27 N         142.7046  144.2584  160.7103 N.ar    1  UNL1       -0.2239
     28 C         141.5718  144.3323  161.6907 C.ar    1  UNL1        0.0857
     29 C         141.8229  144.8019  163.0930 C.ar    1  UNL1        0.0192
     30 C         140.6901  144.8758  164.0734 C.ar    1  UNL1        0.0054
     31 C         139.3061  144.4801  163.6515 C.ar    1  UNL1        0.0716
     32 C         139.0549  144.0105  162.2493 C.ar    1  UNL1        0.0081
     33 C         140.1878  143.9366  161.2689 C.ar    1  UNL1        0.0491
     34 C         138.1733  144.5540  164.6319 C.3     1  UNL1        0.4186
     35 F         137.0404  144.6280  165.6124 F       1  UNL1       -0.1659
     36 F         137.2655  143.9010  163.6322 F       1  UNL1       -0.1659
     37 F         139.0810  145.2070  165.6316 F       1  UNL1       -0.1659
@<TRIPOS>BOND
     1     1     2    2
     2     2    21    1
     3    21    22    1
     4    22    24    1
     5    24    25   ar
     6    25    26   ar
     7    26    27   ar
     8    27    28   ar
     9    28    29   ar
    10    29    30   ar
    11    30    31   ar
    12    31    34    1
    13    34    35    1
    14    34    36    1
    15    34    37    1
    16    31    32   ar
    17    32    33   ar
    18     2     3   am
    19     3     5    1
    20     5     6    1
    21     6     7    1
    22     9     7    1
    23     9    10    1
    24    10    11    1
    25    11    12    1
    26    12    15    1
    27    15    16   ar
    28    16    17   ar
    29    17    18   ar
    30    18    19   ar
    31    19    20   ar
    32    12    13    1
    33    13    14    1
    34     7     8    1
    35    33    24   ar
    36     8     5    1
    37    33    28   ar
    38    14     9    1
    39    20    15   ar
    40    22    23    1
    41     3     4    1
@<TRIPOS>MOLECULE
*****
 37 41 0 0 0
SMALL
GASTEIGER

@<TRIPOS>ATOM
      1 O         139.8309  140.0979  160.2007 O.2     1  UNL1       -0.2733
      2 C         139.4197  141.0972  159.1603 C.2     1  UNL1        0.2425
      3 N         139.6068  140.7850  157.7051 N.am    1  UNL1       -0.3018
      4 H         139.3369  141.4409  157.0223 H       1  UNL1        0.1495
      5 C         140.2052  139.4735  157.2903 C.3     1  UNL1        0.1035
      6 C         140.1423  138.0676  157.8093 C.3     1  UNL1        0.0933
      7 N         141.0513  137.6188  156.7037 N.3     1  UNL1       -0.2711
      8 C         141.1141  139.0248  156.1847 C.3     1  UNL1        0.0933
      9 C         141.6496  136.3074  156.2889 C.3     1  UNL1        0.0576
     10 C         140.9930  135.4890  155.2169 C.3     1  UNL1        0.0163
     11 C         141.5913  134.1775  154.8021 C.3     1  UNL1        0.0057
     12 C         142.8463  133.6844  155.4592 C.3     1  UNL1        0.0224
     13 C         143.5030  134.5028  156.5312 C.3     1  UNL1        0.0057
     14 C         142.9047  135.8142  156.9460 C.3     1  UNL1        0.0163
     15 C         143.4446  132.3730  155.0444 C.ar    1  UNL1       -0.0225
     16 C         144.3580  131.6363  155.9788 C.ar    1  UNL1       -0.0043
     17 C         144.9563  130.3249  155.5640 C.ar    1  UNL1       -0.0003
     18 C         144.6413  129.7500  154.2148 C.ar    1  UNL1       -0.0000
     19 C         143.7279  130.4866  153.2804 C.ar    1  UNL1       -0.0003
     20 C         143.1295  131.7982  153.6952 C.ar    1  UNL1       -0.0043
     21 C         138.8214  142.4086  159.5751 C.3     1  UNL1        0.1747
     22 N         138.0515  142.5093  160.8585 N.pl3   1  UNL1       -0.3106
     23 H         137.1733  142.0722  160.9413 H       1  UNL1        0.1486
     24 C         138.6198  143.2759  162.0159 C.ar    1  UNL1        0.1320
     25 N         138.8973  144.7436  161.8795 N.ar    1  UNL1       -0.2092
     26 C         139.4656  145.5101  163.0369 C.ar    1  UNL1        0.2000
     27 N         139.7564  144.8089  164.3306 N.ar    1  UNL1       -0.2239
     28 C         139.4789  143.3411  164.4670 C.ar    1  UNL1        0.0857
     29 C         139.7697  142.6399  165.7607 C.ar    1  UNL1        0.0192
     30 C         139.4923  141.1721  165.8970 C.ar    1  UNL1        0.0054
     31 C         138.9239  140.4055  164.7397 C.ar    1  UNL1        0.0716
     32 C         138.6331  141.1068  163.4460 C.ar    1  UNL1        0.0081
     33 C         138.9106  142.5746  163.3096 C.ar    1  UNL1        0.0491
     34 C         138.6465  138.9378  164.8760 C.3     1  UNL1        0.4186
     35 F         138.3690  137.4699  165.0125 F       1  UNL1       -0.1659
     36 F         139.3358  138.6859  163.5679 F       1  UNL1       -0.1659
     37 F         137.9571  139.1896  166.1842 F       1  UNL1       -0.1659
@<TRIPOS>BOND
     1     1     2    2
     2     2    21    1
     3    21    22    1
     4    22    24    1
     5    24    25   ar
     6    25    26   ar
     7    26    27   ar
     8    27    28   ar
     9    28    29   ar
    10    29    30   ar
    11    30    31   ar
    12    31    34    1
    13    34    35    1
    14    34    36    1
    15    34    37    1
    16    31    32   ar
    17    32    33   ar
    18     2     3   am
    19     3     5    1
    20     5     6    1
    21     6     7    1
    22     9     7    1
    23     9    10    1
    24    10    11    1
    25    11    12    1
    26    12    15    1
    27    15    16   ar
    28    16    17   ar
    29    17    18   ar
    30    18    19   ar
    31    19    20   ar
    32    12    13    1
    33    13    14    1
    34     7     8    1
    35    33    24   ar
    36     8     5    1
    37    33    28   ar
    38    14     9    1
    39    20    15   ar
    40    22    23    1
    41     3     4    1
