@<TRIPOS>MOLECULE
*****
 32 35 0 0 0
SMALL
GASTEIGER

@<TRIPOS>ATOM
      1 C         141.0777  137.0513  163.6477 C.3     1  UNL1        0.0233
      2 C         141.7892  138.3241  163.9995 C.3     1  UNL1        0.0954
      3 C         141.9728  138.7078  165.4379 C.3     1  UNL1        0.1135
      4 N         142.6844  139.9806  165.7896 N.pl3   1  UNL1       -0.2723
      5 C         143.2123  140.8696  164.7030 C.3     1  UNL1        0.1152
      6 C         143.0288  140.4859  163.2646 C.3     1  UNL1        0.1151
      7 N         142.3172  139.2131  162.9129 N.pl3   1  UNL1       -0.2764
      8 C         142.1336  138.8294  161.4744 C.ar    1  UNL1        0.2204
      9 N         140.9248  139.2999  160.7211 N.ar    1  UNL1       -0.2089
     10 C         140.7412  138.9162  159.2827 C.ar    1  UNL1        0.1402
     11 C         141.7664  138.0620  158.5975 C.ar    1  UNL1        0.1773
     12 C         142.9752  137.5915  159.3508 C.ar    1  UNL1        0.1402
     13 N         143.1588  137.9752  160.7893 N.ar    1  UNL1       -0.2089
     14 O         141.5828  137.6784  157.1591 O.3     1  UNL1       -0.4675
     15 C         142.6402  136.8811  156.4547 C.3     1  UNL1        0.2329
     16 C         142.5301  135.3869  156.3834 C.ar    1  UNL1        0.0339
     17 C         143.3644  134.5294  157.2881 C.ar    1  UNL1        0.0207
     18 C         143.2543  133.0351  157.2168 C.ar    1  UNL1        0.0987
     19 N         142.3098  132.3984  156.2408 N.ar    1  UNL1       -0.2416
     20 C         141.4755  133.2559  155.3360 C.ar    1  UNL1        0.1089
     21 C         141.5856  134.7502  155.4073 C.ar    1  UNL1        0.0871
     22 C         140.7513  135.6077  154.5026 C.1     1  UNL1        0.1018
     23 N         139.9170  136.4653  153.5979 N.1     1  UNL1       -0.1908
     24 C         142.8680  140.3643  167.2281 C.ar    1  UNL1        0.2595
     25 N         142.9757  139.4174  168.3864 N.ar    1  UNL1       -0.0396
     26 O         143.1504  140.2302  169.6349 O.2     1  UNL1       -0.3269
     27 C         143.1506  141.6795  169.2483 C.ar    1  UNL1        0.3330
     28 N         142.9760  141.7624  167.7608 N.ar    1  UNL1       -0.1706
     29 C         143.2992  142.8418  170.1847 C.3     1  UNL1        0.4721
     30 F         143.4478  144.0041  171.1211 F       1  UNL1       -0.1619
     31 F         141.8244  143.1009  170.0972 F       1  UNL1       -0.1619
     32 F         144.7740  142.5827  170.2722 F       1  UNL1       -0.1619
@<TRIPOS>BOND
     1     2     1    1
     2     2     3    1
     3     3     4    1
     4     4    24    1
     5    24    25   ar
     6    25    26   ar
     7    26    27   ar
     8    27    29    1
     9    29    30    1
    10    29    31    1
    11    29    32    1
    12    27    28   ar
    13     4     5    1
    14     5     6    1
    15     6     7    1
    16     7     8    1
    17     8     9   ar
    18     9    10   ar
    19    10    11   ar
    20    11    14    1
    21    14    15    1
    22    15    16    1
    23    16    17   ar
    24    17    18   ar
    25    18    19   ar
    26    19    20   ar
    27    20    21   ar
    28    21    22    1
    29    22    23    3
    30    11    12   ar
    31    12    13   ar
    32     7     2    1
    33    13     8   ar
    34    28    24   ar
    35    21    16   ar
@<TRIPOS>MOLECULE
*****
 32 35 0 0 0
SMALL
GASTEIGER

@<TRIPOS>ATOM
      1 C         141.0982  141.2181  162.0933 C.3     1  UNL1        0.0233
      2 C         140.6010  140.0735  162.9255 C.3     1  UNL1        0.0954
      3 C         140.2728  140.2861  164.3736 C.3     1  UNL1        0.1135
      4 N         139.7755  139.1415  165.2058 N.pl3   1  UNL1       -0.2723
      5 C         139.6064  137.7843  164.5899 C.3     1  UNL1        0.1152
      6 C         139.9346  137.5717  163.1418 C.3     1  UNL1        0.1151
      7 N         140.4319  138.7163  162.3096 N.pl3   1  UNL1       -0.2764
      8 C         140.7601  138.5037  160.8614 C.ar    1  UNL1        0.2204
      9 N         139.6912  138.6557  159.8200 N.ar    1  UNL1       -0.2089
     10 C         140.0193  138.4431  158.3719 C.ar    1  UNL1        0.1402
     11 C         141.4164  138.0784  157.9651 C.ar    1  UNL1        0.1773
     12 C         142.4852  137.9265  159.0065 C.ar    1  UNL1        0.1402
     13 N         142.1570  138.1391  160.4546 N.ar    1  UNL1       -0.2089
     14 O         141.7445  137.8658  156.5170 O.3     1  UNL1       -0.4675
     15 C         142.8546  136.9349  156.1283 C.3     1  UNL1        0.2329
     16 C         142.6525  135.4509  156.2112 C.ar    1  UNL1        0.0339
     17 C         143.4419  134.6403  157.1960 C.ar    1  UNL1        0.0207
     18 C         143.2398  133.1563  157.2788 C.ar    1  UNL1        0.0987
     19 N         142.2483  132.4828  156.3769 N.ar    1  UNL1       -0.2416
     20 C         141.4589  133.2934  155.3921 C.ar    1  UNL1        0.1089
     21 C         141.6610  134.7774  155.3093 C.ar    1  UNL1        0.0871
     22 C         140.8716  135.5880  154.3245 C.1     1  UNL1        0.1018
     23 N         140.0822  136.3986  153.3397 N.1     1  UNL1       -0.1908
     24 C         139.4473  139.3541  166.6540 C.ar    1  UNL1        0.2595
     25 N         138.1766  138.9468  167.3391 N.ar    1  UNL1       -0.0396
     26 O         138.2762  139.3524  168.7798 O.2     1  UNL1       -0.3269
     27 C         139.6085  140.0104  168.9851 C.ar    1  UNL1        0.3330
     28 N         140.3323  140.0114  167.6712 N.ar    1  UNL1       -0.1706
     29 C         140.1261  140.5691  170.2773 C.3     1  UNL1        0.4721
     30 F         140.6437  141.1279  171.5695 F       1  UNL1       -0.1619
     31 F         139.0966  141.6584  170.2186 F       1  UNL1       -0.1619
     32 F         141.1557  139.4799  170.3359 F       1  UNL1       -0.1619
@<TRIPOS>BOND
     1     2     1    1
     2     2     3    1
     3     3     4    1
     4     4    24    1
     5    24    25   ar
     6    25    26   ar
     7    26    27   ar
     8    27    29    1
     9    29    30    1
    10    29    31    1
    11    29    32    1
    12    27    28   ar
    13     4     5    1
    14     5     6    1
    15     6     7    1
    16     7     8    1
    17     8     9   ar
    18     9    10   ar
    19    10    11   ar
    20    11    14    1
    21    14    15    1
    22    15    16    1
    23    16    17   ar
    24    17    18   ar
    25    18    19   ar
    26    19    20   ar
    27    20    21   ar
    28    21    22    1
    29    22    23    3
    30    11    12   ar
    31    12    13   ar
    32     7     2    1
    33    13     8   ar
    34    28    24   ar
    35    21    16   ar
@<TRIPOS>MOLECULE
*****
 32 35 0 0 0
SMALL
GASTEIGER

@<TRIPOS>ATOM
      1 C         138.8754  137.6044  163.2345 C.3     1  UNL1        0.0233
      2 C         139.4187  138.6211  162.2748 C.3     1  UNL1        0.0954
      3 C         138.8126  138.7634  160.9102 C.3     1  UNL1        0.1135
      4 N         139.3559  139.7801  159.9505 N.pl3   1  UNL1       -0.2723
      5 C         140.5053  140.6547  160.3554 C.3     1  UNL1        0.1152
      6 C         141.1114  140.5125  161.7201 C.3     1  UNL1        0.1151
      7 N         140.5681  139.4957  162.6798 N.pl3   1  UNL1       -0.2764
      8 C         141.1743  139.3535  164.0445 C.ar    1  UNL1        0.2204
      9 N         140.5747  140.0813  165.2110 N.ar    1  UNL1       -0.2089
     10 C         141.1808  139.9391  166.5757 C.ar    1  UNL1        0.1402
     11 C         142.3865  139.0691  166.7739 C.ar    1  UNL1        0.1773
     12 C         142.9861  138.3413  165.6074 C.ar    1  UNL1        0.1402
     13 N         142.3800  138.4835  164.2427 N.ar    1  UNL1       -0.2089
     14 O         142.9926  138.9269  168.1386 O.3     1  UNL1       -0.4675
     15 C         142.2045  139.3173  169.3537 C.3     1  UNL1        0.2329
     16 C         142.1517  140.7532  169.7841 C.ar    1  UNL1        0.0339
     17 C         143.4054  141.5764  169.8052 C.ar    1  UNL1        0.0207
     18 C         143.3526  143.0124  170.2356 C.ar    1  UNL1        0.0987
     19 N         142.0460  143.6251  170.6448 N.ar    1  UNL1       -0.2416
     20 C         140.7923  142.8019  170.6236 C.ar    1  UNL1        0.1089
     21 C         140.8451  141.3660  170.1933 C.ar    1  UNL1        0.0871
     22 C         139.5913  140.5428  170.1721 C.1     1  UNL1        0.1018
     23 N         138.3376  139.7196  170.1510 N.1     1  UNL1       -0.1908
     24 C         138.7498  139.9224  158.5857 C.ar    1  UNL1        0.2595
     25 N         139.0850  139.0935  157.3813 N.ar    1  UNL1       -0.0396
     26 O         138.2444  139.5773  156.2371 O.2     1  UNL1       -0.3269
     27 C         137.3895  140.7052  156.7343 C.ar    1  UNL1        0.3330
     28 N         137.7019  140.9184  158.1858 N.ar    1  UNL1       -0.1706
     29 C         136.3967  141.4832  155.9226 C.3     1  UNL1        0.4721
     30 F         135.4039  142.2612  155.1108 F       1  UNL1       -0.1619
     31 F         137.5201  142.2155  155.2505 F       1  UNL1       -0.1619
     32 F         135.2733  140.7508  156.5946 F       1  UNL1       -0.1619
@<TRIPOS>BOND
     1     2     1    1
     2     2     3    1
     3     3     4    1
     4     4    24    1
     5    24    25   ar
     6    25    26   ar
     7    26    27   ar
     8    27    29    1
     9    29    30    1
    10    29    31    1
    11    29    32    1
    12    27    28   ar
    13     4     5    1
    14     5     6    1
    15     6     7    1
    16     7     8    1
    17     8     9   ar
    18     9    10   ar
    19    10    11   ar
    20    11    14    1
    21    14    15    1
    22    15    16    1
    23    16    17   ar
    24    17    18   ar
    25    18    19   ar
    26    19    20   ar
    27    20    21   ar
    28    21    22    1
    29    22    23    3
    30    11    12   ar
    31    12    13   ar
    32     7     2    1
    33    13     8   ar
    34    28    24   ar
    35    21    16   ar
@<TRIPOS>MOLECULE
*****
 32 35 0 0 0
SMALL
GASTEIGER

@<TRIPOS>ATOM
      1 C         139.2135  140.5224  161.9970 C.3     1  UNL1        0.0233
      2 C         140.3854  139.6054  161.8076 C.3     1  UNL1        0.0954
      3 C         140.9368  139.3671  160.4331 C.3     1  UNL1        0.1135
      4 N         142.1087  138.4502  160.2437 N.pl3   1  UNL1       -0.2723
      5 C         142.7292  137.7715  161.4288 C.3     1  UNL1        0.1152
      6 C         142.1778  138.0099  162.8032 C.3     1  UNL1        0.1151
      7 N         141.0059  138.9268  162.9926 N.pl3   1  UNL1       -0.2764
      8 C         140.4546  139.1652  164.3672 C.ar    1  UNL1        0.2204
      9 N         141.1227  140.1470  165.2834 N.ar    1  UNL1       -0.2089
     10 C         140.5714  140.3853  166.6579 C.ar    1  UNL1        0.1402
     11 C         139.3519  139.6418  167.1162 C.ar    1  UNL1        0.1773
     12 C         138.6837  138.6600  166.1999 C.ar    1  UNL1        0.1402
     13 N         139.2351  138.4217  164.8254 N.ar    1  UNL1       -0.2089
     14 O         138.8006  139.8802  168.4906 O.3     1  UNL1       -0.4675
     15 C         139.7275  139.9576  169.6675 C.3     1  UNL1        0.2329
     16 C         140.5563  141.1879  169.8896 C.ar    1  UNL1        0.0339
     17 C         139.9199  142.5442  169.8172 C.ar    1  UNL1        0.0207
     18 C         140.7489  143.7745  170.0393 C.ar    1  UNL1        0.0987
     19 N         142.2142  143.6484  170.3339 N.ar    1  UNL1       -0.2416
     20 C         142.8507  142.2921  170.4062 C.ar    1  UNL1        0.1089
     21 C         142.0218  141.0618  170.1841 C.ar    1  UNL1        0.0871
     22 C         142.6583  139.7055  170.2565 C.1     1  UNL1        0.1018
     23 N         143.2947  138.3491  170.3289 N.1     1  UNL1       -0.1908
     24 C         142.6600  138.2118  158.8692 C.ar    1  UNL1        0.2595
     25 N         143.4469  139.1935  158.0524 N.ar    1  UNL1       -0.0396
     26 O         143.7944  138.5384  156.7486 O.2     1  UNL1       -0.3269
     27 C         143.2224  137.1517  156.7596 C.ar    1  UNL1        0.3330
     28 N         142.5213  136.9499  158.0702 N.ar    1  UNL1       -0.1706
     29 C         143.3322  136.1439  155.6541 C.3     1  UNL1        0.4721
     30 F         143.4421  135.1360  154.5485 F       1  UNL1       -0.1619
     31 F         144.6618  136.7178  155.2629 F       1  UNL1       -0.1619
     32 F         142.0027  135.5700  156.0452 F       1  UNL1       -0.1619
@<TRIPOS>BOND
     1     2     1    1
     2     2     3    1
     3     3     4    1
     4     4    24    1
     5    24    25   ar
     6    25    26   ar
     7    26    27   ar
     8    27    29    1
     9    29    30    1
    10    29    31    1
    11    29    32    1
    12    27    28   ar
    13     4     5    1
    14     5     6    1
    15     6     7    1
    16     7     8    1
    17     8     9   ar
    18     9    10   ar
    19    10    11   ar
    20    11    14    1
    21    14    15    1
    22    15    16    1
    23    16    17   ar
    24    17    18   ar
    25    18    19   ar
    26    19    20   ar
    27    20    21   ar
    28    21    22    1
    29    22    23    3
    30    11    12   ar
    31    12    13   ar
    32     7     2    1
    33    13     8   ar
    34    28    24   ar
    35    21    16   ar
@<TRIPOS>MOLECULE
*****
 32 35 0 0 0
SMALL
GASTEIGER

@<TRIPOS>ATOM
      1 C         140.9979  140.4877  161.6287 C.3     1  UNL1        0.0233
      2 C         140.7972  141.9741  161.6461 C.3     1  UNL1        0.0954
      3 C         140.9516  142.7666  160.3820 C.3     1  UNL1        0.1135
      4 N         140.7508  144.2530  160.3994 N.pl3   1  UNL1       -0.2723
      5 C         140.3957  144.9469  161.6809 C.3     1  UNL1        0.1152
      6 C         140.2413  144.1543  162.9450 C.3     1  UNL1        0.1151
      7 N         140.4420  142.6679  162.9276 N.pl3   1  UNL1       -0.2764
      8 C         140.2876  141.8754  164.1918 C.ar    1  UNL1        0.2204
      9 N         141.4771  141.6270  165.0713 N.ar    1  UNL1       -0.2089
     10 C         141.3227  140.8345  166.3354 C.ar    1  UNL1        0.1402
     11 C         139.9789  140.2904  166.7202 C.ar    1  UNL1        0.1773
     12 C         138.7894  140.5387  165.8407 C.ar    1  UNL1        0.1402
     13 N         138.9438  141.3313  164.5765 N.ar    1  UNL1       -0.2089
     14 O         139.8245  139.4979  167.9843 O.3     1  UNL1       -0.4675
     15 C         139.6448  140.2044  169.2952 C.3     1  UNL1        0.2329
     16 C         140.5520  141.3401  169.6656 C.ar    1  UNL1        0.0339
     17 C         140.0349  142.7481  169.6521 C.ar    1  UNL1        0.0207
     18 C         140.9421  143.8839  170.0225 C.ar    1  UNL1        0.0987
     19 N         142.3663  143.6116  170.4065 N.ar    1  UNL1       -0.2416
     20 C         142.8834  142.2036  170.4200 C.ar    1  UNL1        0.1089
     21 C         141.9763  141.0679  170.0496 C.ar    1  UNL1        0.0871
     22 C         142.4933  139.6599  170.0631 C.1     1  UNL1        0.1018
     23 N         143.0104  138.2519  170.0766 N.1     1  UNL1       -0.1908
     24 C         140.9052  145.0455  159.1352 C.ar    1  UNL1        0.2595
     25 N         142.2030  145.4385  158.4939 N.ar    1  UNL1       -0.0396
     26 O         141.8888  146.2200  157.2528 O.2     1  UNL1       -0.3269
     27 C         140.3967  146.3101  157.1270 C.ar    1  UNL1        0.3330
     28 N         139.7889  145.5842  158.2904 N.ar    1  UNL1       -0.1706
     29 C         139.6447  147.0042  156.0304 C.3     1  UNL1        0.4721
     30 F         138.8926  147.6983  154.9337 F       1  UNL1       -0.1619
     31 F         138.8619  147.7726  157.0535 F       1  UNL1       -0.1619
     32 F         140.4274  146.2358  155.0072 F       1  UNL1       -0.1619
@<TRIPOS>BOND
     1     2     1    1
     2     2     3    1
     3     3     4    1
     4     4    24    1
     5    24    25   ar
     6    25    26   ar
     7    26    27   ar
     8    27    29    1
     9    29    30    1
    10    29    31    1
    11    29    32    1
    12    27    28   ar
    13     4     5    1
    14     5     6    1
    15     6     7    1
    16     7     8    1
    17     8     9   ar
    18     9    10   ar
    19    10    11   ar
    20    11    14    1
    21    14    15    1
    22    15    16    1
    23    16    17   ar
    24    17    18   ar
    25    18    19   ar
    26    19    20   ar
    27    20    21   ar
    28    21    22    1
    29    22    23    3
    30    11    12   ar
    31    12    13   ar
    32     7     2    1
    33    13     8   ar
    34    28    24   ar
    35    21    16   ar
@<TRIPOS>MOLECULE
*****
 32 35 0 0 0
SMALL
GASTEIGER

@<TRIPOS>ATOM
      1 C         139.9168  145.6301  162.5874 C.3     1  UNL1        0.0233
      2 C         140.4896  144.9961  161.3545 C.3     1  UNL1        0.0954
      3 C         140.0283  145.4418  159.9986 C.3     1  UNL1        0.1135
      4 N         140.6011  144.8078  158.7657 N.pl3   1  UNL1       -0.2723
      5 C         141.6351  143.7282  158.8887 C.3     1  UNL1        0.1152
      6 C         142.0964  143.2826  160.2446 C.3     1  UNL1        0.1151
      7 N         141.5236  143.9165  161.4775 N.pl3   1  UNL1       -0.2764
      8 C         141.9849  143.4708  162.8335 C.ar    1  UNL1        0.2204
      9 N         143.2761  143.9890  163.3942 N.ar    1  UNL1       -0.2089
     10 C         143.7375  143.5433  164.7501 C.ar    1  UNL1        0.1402
     11 C         142.9076  142.5794  165.5454 C.ar    1  UNL1        0.1773
     12 C         141.6164  142.0613  164.9847 C.ar    1  UNL1        0.1402
     13 N         141.1551  142.5070  163.6287 N.ar    1  UNL1       -0.2089
     14 O         143.3690  142.1338  166.9013 O.3     1  UNL1       -0.4675
     15 C         142.5674  141.1279  167.6731 C.3     1  UNL1        0.2329
     16 C         141.7724  141.5607  168.8691 C.ar    1  UNL1        0.0339
     17 C         141.0523  142.8764  168.8550 C.ar    1  UNL1        0.0207
     18 C         140.2572  143.3092  170.0511 C.ar    1  UNL1        0.0987
     19 N         140.1823  142.4262  171.2613 N.ar    1  UNL1       -0.2416
     20 C         140.9024  141.1105  171.2755 C.ar    1  UNL1        0.1089
     21 C         141.6975  140.6777  170.0795 C.ar    1  UNL1        0.0871
     22 C         142.4176  139.3619  170.0936 C.1     1  UNL1        0.1018
     23 N         143.1377  138.0461  170.1078 N.1     1  UNL1       -0.1908
     24 C         140.1397  145.2536  157.4097 C.ar    1  UNL1        0.2595
     25 N         139.4144  144.4098  156.4038 N.ar    1  UNL1       -0.0396
     26 O         139.1492  145.2561  155.1940 O.2     1  UNL1       -0.3269
     27 C         139.7106  146.6229  155.4523 C.ar    1  UNL1        0.3330
     28 N         140.3227  146.6213  156.8217 N.ar    1  UNL1       -0.1706
     29 C         139.6673  147.7869  154.5072 C.3     1  UNL1        0.4721
     30 F         139.6241  148.9509  153.5621 F       1  UNL1       -0.1619
     31 F         140.8352  147.2201  153.7557 F       1  UNL1       -0.1619
     32 F         138.4995  148.3537  155.2587 F       1  UNL1       -0.1619
@<TRIPOS>BOND
     1     2     1    1
     2     2     3    1
     3     3     4    1
     4     4    24    1
     5    24    25   ar
     6    25    26   ar
     7    26    27   ar
     8    27    29    1
     9    29    30    1
    10    29    31    1
    11    29    32    1
    12    27    28   ar
    13     4     5    1
    14     5     6    1
    15     6     7    1
    16     7     8    1
    17     8     9   ar
    18     9    10   ar
    19    10    11   ar
    20    11    14    1
    21    14    15    1
    22    15    16    1
    23    16    17   ar
    24    17    18   ar
    25    18    19   ar
    26    19    20   ar
    27    20    21   ar
    28    21    22    1
    29    22    23    3
    30    11    12   ar
    31    12    13   ar
    32     7     2    1
    33    13     8   ar
    34    28    24   ar
    35    21    16   ar
@<TRIPOS>MOLECULE
*****
 32 35 0 0 0
SMALL
GASTEIGER

@<TRIPOS>ATOM
      1 C         140.4761  145.5094  162.3236 C.3     1  UNL1        0.0233
      2 C         140.1580  144.7920  161.0452 C.3     1  UNL1        0.0954
      3 C         140.3252  145.4935  159.7300 C.3     1  UNL1        0.1135
      4 N         140.0071  144.7762  158.4516 N.pl3   1  UNL1       -0.2723
      5 C         139.5218  143.3574  158.4885 C.3     1  UNL1        0.1152
      6 C         139.3546  142.6559  159.8037 C.3     1  UNL1        0.1151
      7 N         139.6727  143.3732  161.0821 N.pl3   1  UNL1       -0.2764
      8 C         139.5055  142.6717  162.3974 C.ar    1  UNL1        0.2204
      9 N         140.6009  141.7918  162.9227 N.ar    1  UNL1       -0.2089
     10 C         140.4337  141.0903  164.2379 C.ar    1  UNL1        0.1402
     11 C         139.1711  141.2686  165.0279 C.ar    1  UNL1        0.1773
     12 C         138.0757  142.1484  164.5026 C.ar    1  UNL1        0.1402
     13 N         138.2429  142.8500  163.1873 N.ar    1  UNL1       -0.2089
     14 O         139.0039  140.5670  166.3431 O.3     1  UNL1       -0.4675
     15 C         140.1999  139.9969  167.0464 C.3     1  UNL1        0.2329
     16 C         141.0256  140.8668  167.9472 C.ar    1  UNL1        0.0339
     17 C         142.2984  141.4772  167.4400 C.ar    1  UNL1        0.0207
     18 C         143.1241  142.3471  168.3409 C.ar    1  UNL1        0.0987
     19 N         142.6769  142.6066  169.7489 N.ar    1  UNL1       -0.2416
     20 C         141.4040  141.9962  170.2562 C.ar    1  UNL1        0.1089
     21 C         140.5784  141.1263  169.3553 C.ar    1  UNL1        0.0871
     22 C         139.3056  140.5159  169.8626 C.1     1  UNL1        0.1018
     23 N         138.0327  139.9055  170.3698 N.1     1  UNL1       -0.1908
     24 C         140.1743  145.4777  157.1363 C.ar    1  UNL1        0.2595
     25 N         140.9515  144.9693  155.9584 N.ar    1  UNL1       -0.0396
     26 O         140.8512  145.9882  154.8622 O.2     1  UNL1       -0.3269
     27 C         140.0120  147.1264  155.3626 C.ar    1  UNL1        0.3330
     28 N         139.5937  146.8109  156.7681 N.ar    1  UNL1       -0.1706
     29 C         139.6540  148.3630  154.5927 C.3     1  UNL1        0.4721
     30 F         139.2961  149.5995  153.8227 F       1  UNL1       -0.1619
     31 F         138.5675  148.6644  155.5819 F       1  UNL1       -0.1619
     32 F         140.7405  148.0616  153.6034 F       1  UNL1       -0.1619
@<TRIPOS>BOND
     1     2     1    1
     2     2     3    1
     3     3     4    1
     4     4    24    1
     5    24    25   ar
     6    25    26   ar
     7    26    27   ar
     8    27    29    1
     9    29    30    1
    10    29    31    1
    11    29    32    1
    12    27    28   ar
    13     4     5    1
    14     5     6    1
    15     6     7    1
    16     7     8    1
    17     8     9   ar
    18     9    10   ar
    19    10    11   ar
    20    11    14    1
    21    14    15    1
    22    15    16    1
    23    16    17   ar
    24    17    18   ar
    25    18    19   ar
    26    19    20   ar
    27    20    21   ar
    28    21    22    1
    29    22    23    3
    30    11    12   ar
    31    12    13   ar
    32     7     2    1
    33    13     8   ar
    34    28    24   ar
    35    21    16   ar
@<TRIPOS>MOLECULE
*****
 32 35 0 0 0
SMALL
GASTEIGER

@<TRIPOS>ATOM
      1 C         142.5832  139.8807  161.0124 C.3     1  UNL1        0.0233
      2 C         141.9114  139.2103  159.8508 C.3     1  UNL1        0.0954
      3 C         142.6924  138.2868  158.9636 C.3     1  UNL1        0.1135
      4 N         142.0206  137.6164  157.8020 N.pl3   1  UNL1       -0.2723
      5 C         140.5678  137.8695  157.5276 C.3     1  UNL1        0.1152
      6 C         139.7868  138.7930  158.4148 C.3     1  UNL1        0.1151
      7 N         140.4586  139.4634  159.5764 N.pl3   1  UNL1       -0.2764
      8 C         139.6775  140.3869  160.4636 C.ar    1  UNL1        0.2204
      9 N         139.4196  141.8005  160.0331 N.ar    1  UNL1       -0.2089
     10 C         138.6386  142.7240  160.9203 C.ar    1  UNL1        0.1402
     11 C         138.1154  142.2340  162.2380 C.ar    1  UNL1        0.1773
     12 C         138.3734  140.8205  162.6685 C.ar    1  UNL1        0.1402
     13 N         139.1545  139.8969  161.7813 N.ar    1  UNL1       -0.2089
     14 O         137.3344  143.1575  163.1251 O.3     1  UNL1       -0.4675
     15 C         138.0503  144.1678  163.9718 C.3     1  UNL1        0.2329
     16 C         139.5275  144.0431  164.2003 C.ar    1  UNL1        0.0339
     17 C         140.0471  143.1148  165.2578 C.ar    1  UNL1        0.0207
     18 C         141.5244  142.9901  165.4863 C.ar    1  UNL1        0.0987
     19 N         142.4820  143.7937  164.6573 N.ar    1  UNL1       -0.2416
     20 C         141.9624  144.7219  163.5998 C.ar    1  UNL1        0.1089
     21 C         140.4852  144.8466  163.3713 C.ar    1  UNL1        0.0871
     22 C         139.9656  145.7749  162.3138 C.1     1  UNL1        0.1018
     23 N         139.4459  146.7031  161.2562 N.1     1  UNL1       -0.1908
     24 C         142.8017  136.6928  156.9148 C.ar    1  UNL1        0.2595
     25 N         143.9327  137.0854  156.0112 N.ar    1  UNL1       -0.0396
     26 O         144.4189  135.8498  155.3134 O.2     1  UNL1       -0.3269
     27 C         143.5882  134.6935  155.7858 C.ar    1  UNL1        0.3330
     28 N         142.5888  135.2146  156.7756 N.ar    1  UNL1       -0.1706
     29 C         143.7319  133.2667  155.3458 C.3     1  UNL1        0.4721
     30 F         143.8755  131.8400  154.9057 F       1  UNL1       -0.1619
     31 F         144.5497  132.9720  156.5682 F       1  UNL1       -0.1619
     32 F         142.9141  133.5614  154.1234 F       1  UNL1       -0.1619
@<TRIPOS>BOND
     1     2     1    1
     2     2     3    1
     3     3     4    1
     4     4    24    1
     5    24    25   ar
     6    25    26   ar
     7    26    27   ar
     8    27    29    1
     9    29    30    1
    10    29    31    1
    11    29    32    1
    12    27    28   ar
    13     4     5    1
    14     5     6    1
    15     6     7    1
    16     7     8    1
    17     8     9   ar
    18     9    10   ar
    19    10    11   ar
    20    11    14    1
    21    14    15    1
    22    15    16    1
    23    16    17   ar
    24    17    18   ar
    25    18    19   ar
    26    19    20   ar
    27    20    21   ar
    28    21    22    1
    29    22    23    3
    30    11    12   ar
    31    12    13   ar
    32     7     2    1
    33    13     8   ar
    34    28    24   ar
    35    21    16   ar
@<TRIPOS>MOLECULE
*****
 32 35 0 0 0
SMALL
GASTEIGER

@<TRIPOS>ATOM
      1 C         141.9390  139.3241  161.0173 C.3     1  UNL1        0.0233
      2 C         142.0514  139.0508  159.5467 C.3     1  UNL1        0.0954
      3 C         142.5344  137.7143  159.0669 C.3     1  UNL1        0.1135
      4 N         142.6468  137.4410  157.5963 N.pl3   1  UNL1       -0.2723
      5 C         142.2761  138.5044  156.6054 C.3     1  UNL1        0.1152
      6 C         141.7931  139.8409  157.0852 C.3     1  UNL1        0.1151
      7 N         141.6807  140.1142  158.5558 N.pl3   1  UNL1       -0.2764
      8 C         141.1977  141.4508  159.0355 C.ar    1  UNL1        0.2204
      9 N         142.1741  142.5700  159.2455 N.ar    1  UNL1       -0.2089
     10 C         141.6911  143.9066  159.7252 C.ar    1  UNL1        0.1402
     11 C         140.2316  144.1241  159.9950 C.ar    1  UNL1        0.1773
     12 C         139.2552  143.0049  159.7849 C.ar    1  UNL1        0.1402
     13 N         139.7382  141.6683  159.3052 N.ar    1  UNL1       -0.2089
     14 O         139.7486  145.4607  160.4747 O.3     1  UNL1       -0.4675
     15 C         140.1124  145.9408  161.8484 C.3     1  UNL1        0.2329
     16 C         139.9061  145.0463  163.0346 C.ar    1  UNL1        0.0339
     17 C         138.5166  144.7273  163.5007 C.ar    1  UNL1        0.0207
     18 C         138.3103  143.8327  164.6870 C.ar    1  UNL1        0.0987
     19 N         139.4936  143.2572  165.4072 N.ar    1  UNL1       -0.2416
     20 C         140.8832  143.5763  164.9411 C.ar    1  UNL1        0.1089
     21 C         141.0895  144.4708  163.7548 C.ar    1  UNL1        0.0871
     22 C         142.4790  144.7899  163.2887 C.1     1  UNL1        0.1018
     23 N         143.8686  145.1090  162.8226 N.1     1  UNL1       -0.1908
     24 C         143.1299  136.1044  157.1166 C.ar    1  UNL1        0.2595
     25 N         143.5198  135.7608  155.7095 N.ar    1  UNL1       -0.0396
     26 O         143.9387  134.3208  155.6831 O.2     1  UNL1       -0.3269
     27 C         143.8077  133.7742  157.0739 C.ar    1  UNL1        0.3330
     28 N         143.3078  134.8766  157.9598 N.ar    1  UNL1       -0.1706
     29 C         144.1215  132.3717  157.5032 C.3     1  UNL1        0.4721
     30 F         144.4353  130.9692  157.9326 F       1  UNL1       -0.1619
     31 F         145.4475  132.8307  158.0333 F       1  UNL1       -0.1619
     32 F         142.7955  131.9128  156.9732 F       1  UNL1       -0.1619
@<TRIPOS>BOND
     1     2     1    1
     2     2     3    1
     3     3     4    1
     4     4    24    1
     5    24    25   ar
     6    25    26   ar
     7    26    27   ar
     8    27    29    1
     9    29    30    1
    10    29    31    1
    11    29    32    1
    12    27    28   ar
    13     4     5    1
    14     5     6    1
    15     6     7    1
    16     7     8    1
    17     8     9   ar
    18     9    10   ar
    19    10    11   ar
    20    11    14    1
    21    14    15    1
    22    15    16    1
    23    16    17   ar
    24    17    18   ar
    25    18    19   ar
    26    19    20   ar
    27    20    21   ar
    28    21    22    1
    29    22    23    3
    30    11    12   ar
    31    12    13   ar
    32     7     2    1
    33    13     8   ar
    34    28    24   ar
    35    21    16   ar
