@<TRIPOS>MOLECULE
*****
 32 34 0 0 0
SMALL
GASTEIGER

@<TRIPOS>ATOM
      1 N         142.9231  143.8205  160.7140 N.am    1  UNL1       -0.2679
      2 C         143.1085  142.7296  159.7012 C.2     1  UNL1        0.2272
      3 O         143.6104  141.3834  160.1322 O.2     1  UNL1       -0.2747
      4 H         142.5937  144.7040  160.4312 H       1  UNL1        0.1563
      5 C         143.0112  142.9834  164.5031 C.ar    1  UNL1        0.0767
      6 C         142.2682  143.1099  163.2062 C.ar    1  UNL1        0.0546
      7 C         143.2397  143.5650  162.1578 C.ar    1  UNL1        0.1552
      8 N         144.5831  143.7197  162.8067 N.ar    1  UNL1       -0.1574
      9 N         144.4420  143.3602  164.2561 N.ar    1  UNL1       -0.2745
     10 H         145.1620  143.3700  164.9275 H       1  UNL1        0.1890
     11 C         141.2565  141.6987  168.4427 C.ar    1  UNL1        0.1387
     12 C         140.3716  141.8486  167.2407 C.ar    1  UNL1        0.0369
     13 C         140.9566  142.2768  165.9276 C.ar    1  UNL1        0.0046
     14 C         142.4264  142.5551  165.8163 C.ar    1  UNL1        0.0173
     15 C         143.3111  142.4053  167.0182 C.ar    1  UNL1        0.0046
     16 C         142.7262  141.9771  168.3314 C.ar    1  UNL1        0.0369
     17 C         139.3991  140.4768  169.7869 C.3     1  UNL1        0.2525
     18 O         140.6715  141.2705  169.7559 O.3     1  UNL1       -0.4714
     19 C         142.7920  142.9851  158.2574 C.3     1  UNL1        0.0855
     20 C         142.5939  144.3899  157.7703 C.3     1  UNL1        0.0110
     21 C         141.2071  144.9321  157.5885 C.3     1  UNL1        0.0178
     22 C         140.5455  145.6881  158.7024 C.3     1  UNL1        0.0722
     23 N         139.9215  144.9450  159.8462 N.3     1  UNL1       -0.2712
     24 C         139.4119  143.5703  159.5285 C.3     1  UNL1        0.0739
     25 C         138.7445  142.5859  160.4426 C.3     1  UNL1        0.0388
     26 C         138.4220  142.7329  161.9000 C.3     1  UNL1        0.0949
     27 N         138.6872  143.9006  162.8035 N.am    1  UNL1       -0.2781
     28 C         138.2400  143.7376  164.2260 C.2     1  UNL1        0.2262
     29 C         138.4578  144.8465  165.2124 C.3     1  UNL1        0.0948
     30 O         137.5751  142.4657  164.6621 O.2     1  UNL1       -0.2749
     31 C         139.3403  145.2097  162.4725 C.3     1  UNL1        0.1107
     32 C         139.8896  145.6744  161.1564 C.3     1  UNL1        0.0939
@<TRIPOS>BOND
     1    17    18    1
     2    18    11    1
     3    11    12   ar
     4    12    13   ar
     5    13    14   ar
     6    14     5    1
     7     5     6   ar
     8     6     7   ar
     9     7     1    1
    10     1     2   am
    11     2     3    2
    12     2    19    1
    13    19    20    1
    14    20    21    1
    15    21    22    1
    16    22    23    1
    17    23    24    1
    18    24    25    1
    19    25    26    1
    20    26    27    1
    21    27    28   am
    22    28    29    1
    23    28    30    2
    24    27    31    1
    25    31    32    1
    26     7     8   ar
    27     8     9   ar
    28    14    15   ar
    29    15    16   ar
    30    16    11   ar
    31     9     5   ar
    32    32    23    1
    33     1     4    1
    34     9    10    1
@<TRIPOS>MOLECULE
*****
 32 34 0 0 0
SMALL
GASTEIGER

@<TRIPOS>ATOM
      1 N         138.1883  142.9871  160.9770 N.am    1  UNL1       -0.2679
      2 C         138.5763  142.1787  159.7744 C.2     1  UNL1        0.2272
      3 O         138.9099  140.7240  159.9243 O.2     1  UNL1       -0.2747
      4 H         137.9693  143.9418  160.8786 H       1  UNL1        0.1563
      5 C         138.7071  141.6621  164.5882 C.ar    1  UNL1        0.0767
      6 C         139.1643  142.4724  163.4117 C.ar    1  UNL1        0.0546
      7 C         138.1340  142.3406  162.3295 C.ar    1  UNL1        0.1552
      8 N         137.0400  141.4488  162.8372 N.ar    1  UNL1       -0.1574
      9 N         137.3941  141.0295  164.2331 N.ar    1  UNL1       -0.2745
     10 H         136.8588  140.4422  164.8143 H       1  UNL1        0.1890
     11 C         140.8905  141.2087  168.4968 C.ar    1  UNL1        0.1387
     12 C         141.0307  142.4729  167.7015 C.ar    1  UNL1        0.0369
     13 C         140.3029  142.6240  166.3987 C.ar    1  UNL1        0.0046
     14 C         139.4348  141.5110  165.8911 C.ar    1  UNL1        0.0173
     15 C         139.2946  140.2469  166.6862 C.ar    1  UNL1        0.0046
     16 C         140.0224  140.0957  167.9891 C.ar    1  UNL1        0.0369
     17 C         142.1946  142.2633  170.4810 C.3     1  UNL1        0.2525
     18 O         141.6184  141.0577  169.7997 O.3     1  UNL1       -0.4714
     19 C         138.6305  142.8252  158.4219 C.3     1  UNL1        0.0855
     20 C         139.9532  143.0523  157.7519 C.3     1  UNL1        0.0110
     21 C         140.7818  144.2491  158.1142 C.3     1  UNL1        0.0178
     22 C         140.4710  145.0278  159.3579 C.3     1  UNL1        0.0722
     23 N         141.2236  144.7490  160.6251 N.3     1  UNL1       -0.2712
     24 C         140.7415  145.4807  161.8426 C.3     1  UNL1        0.0739
     25 C         141.2756  145.4195  163.2431 C.3     1  UNL1        0.0388
     26 C         142.4233  144.6116  163.7718 C.3     1  UNL1        0.0949
     27 N         143.3208  143.6652  163.0308 N.am    1  UNL1       -0.2781
     28 C         144.3881  143.0035  163.8510 C.2     1  UNL1        0.2262
     29 C         145.3392  142.0389  163.2067 C.3     1  UNL1        0.0948
     30 O         144.5044  143.3063  165.3155 O.2     1  UNL1       -0.2749
     31 C         143.2919  143.2931  161.5780 C.3     1  UNL1        0.1107
     32 C         142.3585  143.7755  160.5074 C.3     1  UNL1        0.0939
@<TRIPOS>BOND
     1    17    18    1
     2    18    11    1
     3    11    12   ar
     4    12    13   ar
     5    13    14   ar
     6    14     5    1
     7     5     6   ar
     8     6     7   ar
     9     7     1    1
    10     1     2   am
    11     2     3    2
    12     2    19    1
    13    19    20    1
    14    20    21    1
    15    21    22    1
    16    22    23    1
    17    23    24    1
    18    24    25    1
    19    25    26    1
    20    26    27    1
    21    27    28   am
    22    28    29    1
    23    28    30    2
    24    27    31    1
    25    31    32    1
    26     7     8   ar
    27     8     9   ar
    28    14    15   ar
    29    15    16   ar
    30    16    11   ar
    31     9     5   ar
    32    32    23    1
    33     1     4    1
    34     9    10    1
@<TRIPOS>MOLECULE
*****
 32 34 0 0 0
SMALL
GASTEIGER

@<TRIPOS>ATOM
      1 N         140.2032  142.4880  160.9833 N.am    1  UNL1       -0.2679
      2 C         138.7696  142.4850  160.5415 C.2     1  UNL1        0.2272
      3 O         137.7033  143.0192  161.4512 O.2     1  UNL1       -0.2747
      4 H         140.9030  142.1375  160.3862 H       1  UNL1        0.1563
      5 C         141.1189  143.1564  164.6955 C.ar    1  UNL1        0.0767
      6 C         140.7598  142.2159  163.5835 C.ar    1  UNL1        0.0546
      7 C         140.5702  143.0252  162.3349 C.ar    1  UNL1        0.1552
      8 N         140.8122  144.4659  162.6751 N.ar    1  UNL1       -0.1574
      9 N         141.1513  144.5470  164.1340 N.ar    1  UNL1       -0.2745
     10 H         141.3587  145.3687  164.6351 H       1  UNL1        0.1890
     11 C         141.9528  142.0080  168.9658 C.ar    1  UNL1        0.1387
     12 C         143.0293  141.8755  167.9296 C.ar    1  UNL1        0.0369
     13 C         142.7513  142.2583  166.5062 C.ar    1  UNL1        0.0046
     14 C         141.3968  142.7736  166.1189 C.ar    1  UNL1        0.0173
     15 C         140.3204  142.9061  167.1551 C.ar    1  UNL1        0.0046
     16 C         140.5984  142.5233  168.5785 C.ar    1  UNL1        0.0369
     17 C         141.1517  140.9994  171.2221 C.3     1  UNL1        0.2525
     18 O         142.2309  141.6252  170.3893 O.3     1  UNL1       -0.4714
     19 C         138.4026  141.9478  159.1899 C.3     1  UNL1        0.0855
     20 C         138.1835  140.4759  159.0022 C.3     1  UNL1        0.0110
     21 C         138.2714  139.5486  160.1780 C.3     1  UNL1        0.0178
     22 C         139.4233  138.5952  160.2968 C.3     1  UNL1        0.0722
     23 N         140.1993  138.5123  161.5778 N.3     1  UNL1       -0.2712
     24 C         139.4944  137.8490  162.7239 C.3     1  UNL1        0.0739
     25 C         139.9937  137.6133  164.1186 C.3     1  UNL1        0.0388
     26 C         141.3209  137.9824  164.7117 C.3     1  UNL1        0.0949
     27 N         142.4770  138.6786  164.0566 N.am    1  UNL1       -0.2781
     28 C         143.6775  138.9059  164.9266 C.2     1  UNL1        0.2262
     29 C         144.8883  139.5939  164.3690 C.3     1  UNL1        0.0948
     30 O         143.6674  138.4452  166.3540 O.2     1  UNL1       -0.2749
     31 C         142.5911  139.1775  162.6466 C.3     1  UNL1        0.1107
     32 C         141.5773  139.1034  161.5435 C.3     1  UNL1        0.0939
@<TRIPOS>BOND
     1    17    18    1
     2    18    11    1
     3    11    12   ar
     4    12    13   ar
     5    13    14   ar
     6    14     5    1
     7     5     6   ar
     8     6     7   ar
     9     7     1    1
    10     1     2   am
    11     2     3    2
    12     2    19    1
    13    19    20    1
    14    20    21    1
    15    21    22    1
    16    22    23    1
    17    23    24    1
    18    24    25    1
    19    25    26    1
    20    26    27    1
    21    27    28   am
    22    28    29    1
    23    28    30    2
    24    27    31    1
    25    31    32    1
    26     7     8   ar
    27     8     9   ar
    28    14    15   ar
    29    15    16   ar
    30    16    11   ar
    31     9     5   ar
    32    32    23    1
    33     1     4    1
    34     9    10    1
@<TRIPOS>MOLECULE
*****
 32 34 0 0 0
SMALL
GASTEIGER

@<TRIPOS>ATOM
      1 N         141.6753  145.4969  160.6179 N.am    1  UNL1       -0.2679
      2 C         140.8642  145.1112  159.4164 C.2     1  UNL1        0.2272
      3 O         139.5705  144.3723  159.5905 O.2     1  UNL1       -0.2747
      4 H         142.5244  145.9818  160.5036 H       1  UNL1        0.1563
      5 C         140.9946  144.0882  164.1700 C.ar    1  UNL1        0.0767
      6 C         141.7905  144.1079  162.8988 C.ar    1  UNL1        0.0546
      7 C         141.1925  145.1437  161.9935 C.ar    1  UNL1        0.1552
      8 N         140.0271  145.7641  162.7052 N.ar    1  UNL1       -0.1574
      9 N         139.9048  145.1119  164.0504 N.ar    1  UNL1       -0.2745
     10 H         139.2280  145.3192  164.7346 H       1  UNL1        0.1890
     11 C         141.7446  141.4259  167.7196 C.ar    1  UNL1        0.1387
     12 C         140.3958  142.0523  167.5235 C.ar    1  UNL1        0.0369
     13 C         140.1458  142.9397  166.3404 C.ar    1  UNL1        0.0046
     14 C         141.2447  143.2008  165.3532 C.ar    1  UNL1        0.0173
     15 C         142.5934  142.5744  165.5493 C.ar    1  UNL1        0.0046
     16 C         142.8434  141.6870  166.7324 C.ar    1  UNL1        0.0369
     17 C         140.8424  140.0449  169.7268 C.3     1  UNL1        0.2525
     18 O         141.9945  140.5385  168.9029 O.3     1  UNL1       -0.4714
     19 C         141.3470  145.4644  158.0408 C.3     1  UNL1        0.0855
     20 C         141.8646  144.3915  157.1293 C.3     1  UNL1        0.0110
     21 C         143.0614  143.5804  157.5293 C.3     1  UNL1        0.0178
     22 C         142.9425  142.0929  157.6811 C.3     1  UNL1        0.0722
     23 N         143.3592  141.4341  158.9627 N.3     1  UNL1       -0.2712
     24 C         143.0738  139.9647  159.0618 C.3     1  UNL1        0.0739
     25 C         143.3648  139.0301  160.1984 C.3     1  UNL1        0.0388
     26 C         144.0131  139.3339  161.5164 C.3     1  UNL1        0.0949
     27 N         144.5304  140.6473  162.0236 N.am    1  UNL1       -0.2781
     28 C         145.1302  140.6236  163.3982 C.2     1  UNL1        0.2262
     29 C         145.6773  141.8841  163.9997 C.3     1  UNL1        0.0948
     30 O         145.1830  139.3393  164.1714 O.2     1  UNL1       -0.2749
     31 C         144.5273  141.9814  161.3379 C.3     1  UNL1        0.1107
     32 C         144.0060  142.3314  159.9756 C.3     1  UNL1        0.0939
@<TRIPOS>BOND
     1    17    18    1
     2    18    11    1
     3    11    12   ar
     4    12    13   ar
     5    13    14   ar
     6    14     5    1
     7     5     6   ar
     8     6     7   ar
     9     7     1    1
    10     1     2   am
    11     2     3    2
    12     2    19    1
    13    19    20    1
    14    20    21    1
    15    21    22    1
    16    22    23    1
    17    23    24    1
    18    24    25    1
    19    25    26    1
    20    26    27    1
    21    27    28   am
    22    28    29    1
    23    28    30    2
    24    27    31    1
    25    31    32    1
    26     7     8   ar
    27     8     9   ar
    28    14    15   ar
    29    15    16   ar
    30    16    11   ar
    31     9     5   ar
    32    32    23    1
    33     1     4    1
    34     9    10    1
@<TRIPOS>MOLECULE
*****
 32 34 0 0 0
SMALL
GASTEIGER

@<TRIPOS>ATOM
      1 N         141.9920  144.6590  160.5948 N.am    1  UNL1       -0.2679
      2 C         140.7050  145.3442  160.2423 C.2     1  UNL1        0.2272
      3 O         139.7601  145.7693  161.3269 O.2     1  UNL1       -0.2747
      4 H         142.6122  144.3799  159.8829 H       1  UNL1        0.1563
      5 C         142.3427  143.4564  164.2685 C.ar    1  UNL1        0.0767
      6 C         141.6977  143.3687  162.9172 C.ar    1  UNL1        0.0546
      7 C         142.3340  144.3989  162.0320 C.ar    1  UNL1        0.1552
      8 N         143.3723  145.1234  162.8362 N.ar    1  UNL1       -0.1574
      9 N         143.3777  144.5410  164.2184 N.ar    1  UNL1       -0.2745
     10 H         143.9586  144.8213  164.9622 H       1  UNL1        0.1890
     11 C         141.3478  140.9128  167.8449 C.ar    1  UNL1        0.1387
     12 C         142.5740  140.6181  167.0326 C.ar    1  UNL1        0.0369
     13 C         142.9056  141.4660  165.8405 C.ar    1  UNL1        0.0046
     14 C         142.0111  142.6086  165.4606 C.ar    1  UNL1        0.0173
     15 C         140.7850  142.9033  166.2728 C.ar    1  UNL1        0.0046
     16 C         140.4533  142.0554  167.4649 C.ar    1  UNL1        0.0369
     17 C         142.1052  139.3300  169.7608 C.3     1  UNL1        0.2525
     18 O         141.0163  140.0649  169.0370 O.3     1  UNL1       -0.4714
     19 C         140.3629  145.6042  158.8051 C.3     1  UNL1        0.0855
     20 C         140.1490  144.4548  157.8654 C.3     1  UNL1        0.0110
     21 C         139.3059  143.2880  158.2873 C.3     1  UNL1        0.0178
     22 C         139.9424  142.1055  158.9555 C.3     1  UNL1        0.0722
     23 N         139.5478  141.7316  160.3535 N.3     1  UNL1       -0.2712
     24 C         138.4153  142.5193  160.9427 C.3     1  UNL1        0.0739
     25 C         137.7930  142.3894  162.3014 C.3     1  UNL1        0.0388
     26 C         138.1496  141.4398  163.4063 C.3     1  UNL1        0.0949
     27 N         139.2164  140.3855  163.4257 N.am    1  UNL1       -0.2781
     28 C         139.3237  139.5913  164.6936 C.2     1  UNL1        0.2262
     29 C         140.3581  138.5120  164.8173 C.3     1  UNL1        0.0948
     30 O         138.3966  139.8763  165.8378 O.2     1  UNL1       -0.2749
     31 C         140.1902  140.0205  162.3447 C.3     1  UNL1        0.1107
     32 C         140.3376  140.6196  160.9774 C.3     1  UNL1        0.0939
@<TRIPOS>BOND
     1    17    18    1
     2    18    11    1
     3    11    12   ar
     4    12    13   ar
     5    13    14   ar
     6    14     5    1
     7     5     6   ar
     8     6     7   ar
     9     7     1    1
    10     1     2   am
    11     2     3    2
    12     2    19    1
    13    19    20    1
    14    20    21    1
    15    21    22    1
    16    22    23    1
    17    23    24    1
    18    24    25    1
    19    25    26    1
    20    26    27    1
    21    27    28   am
    22    28    29    1
    23    28    30    2
    24    27    31    1
    25    31    32    1
    26     7     8   ar
    27     8     9   ar
    28    14    15   ar
    29    15    16   ar
    30    16    11   ar
    31     9     5   ar
    32    32    23    1
    33     1     4    1
    34     9    10    1
@<TRIPOS>MOLECULE
*****
 32 34 0 0 0
SMALL
GASTEIGER

@<TRIPOS>ATOM
      1 N         141.9164  139.6863  160.0941 N.am    1  UNL1       -0.2679
      2 C         143.3466  139.5292  159.6698 C.2     1  UNL1        0.2272
      3 O         144.3014  138.7503  160.5252 O.2     1  UNL1       -0.2747
      4 H         141.2897  140.1976  159.5327 H       1  UNL1        0.1563
      5 C         140.6541  138.7884  163.6530 C.ar    1  UNL1        0.0767
      6 C         141.0718  139.8003  162.6276 C.ar    1  UNL1        0.0546
      7 C         141.4411  139.0645  161.3738 C.ar    1  UNL1        0.1552
      8 N         141.2516  137.5978  161.6242 N.ar    1  UNL1       -0.1574
      9 N         140.7653  137.4271  163.0328 N.ar    1  UNL1       -0.2745
     10 H         140.5558  136.5718  163.4731 H       1  UNL1        0.1890
     11 C         139.3047  139.6796  167.8524 C.ar    1  UNL1        0.1387
     12 C         140.7147  139.9801  167.4380 C.ar    1  UNL1        0.0369
     13 C         141.1645  139.6830  166.0382 C.ar    1  UNL1        0.0046
     14 C         140.2043  139.0855  165.0528 C.ar    1  UNL1        0.0173
     15 C         138.7944  138.7850  165.4672 C.ar    1  UNL1        0.0046
     16 C         138.3445  139.0821  166.8669 C.ar    1  UNL1        0.0369
     17 C         139.8690  140.1787  170.3388 C.3     1  UNL1        0.2525
     18 O         138.8549  139.9768  169.2522 O.3     1  UNL1       -0.4714
     19 C         143.8219  140.1510  158.3902 C.3     1  UNL1        0.0855
     20 C         144.2728  141.5815  158.3738 C.3     1  UNL1        0.0110
     21 C         144.3098  142.3709  159.6488 C.3     1  UNL1        0.0178
     22 C         143.1425  143.2313  160.0322 C.3     1  UNL1        0.0722
     23 N         142.6215  143.2052  161.4386 N.3     1  UNL1       -0.2712
     24 C         143.5418  142.6097  162.4626 C.3     1  UNL1        0.0739
     25 C         143.3169  142.4399  163.9360 C.3     1  UNL1        0.0388
     26 C         142.1164  142.8238  164.7491 C.3     1  UNL1        0.0949
     27 N         140.8441  143.4722  164.2899 N.am    1  UNL1       -0.2781
     28 C         139.8228  143.7300  165.3577 C.2     1  UNL1        0.2262
     29 C         138.5151  144.3746  165.0048 C.3     1  UNL1        0.0948
     30 O         140.1090  143.3431  166.7784 O.2     1  UNL1       -0.2749
     31 C         140.4582  143.8969  162.9040 C.3     1  UNL1        0.1107
     32 C         141.2493  143.7780  161.6351 C.3     1  UNL1        0.0939
@<TRIPOS>BOND
     1    17    18    1
     2    18    11    1
     3    11    12   ar
     4    12    13   ar
     5    13    14   ar
     6    14     5    1
     7     5     6   ar
     8     6     7   ar
     9     7     1    1
    10     1     2   am
    11     2     3    2
    12     2    19    1
    13    19    20    1
    14    20    21    1
    15    21    22    1
    16    22    23    1
    17    23    24    1
    18    24    25    1
    19    25    26    1
    20    26    27    1
    21    27    28   am
    22    28    29    1
    23    28    30    2
    24    27    31    1
    25    31    32    1
    26     7     8   ar
    27     8     9   ar
    28    14    15   ar
    29    15    16   ar
    30    16    11   ar
    31     9     5   ar
    32    32    23    1
    33     1     4    1
    34     9    10    1
@<TRIPOS>MOLECULE
*****
 32 34 0 0 0
SMALL
GASTEIGER

@<TRIPOS>ATOM
      1 N         139.2993  140.7717  160.5704 N.am    1  UNL1       -0.2679
      2 C         139.5938  139.4130  160.0071 C.2     1  UNL1        0.2272
      3 O         139.4401  138.1945  160.8683 O.2     1  UNL1       -0.2747
      4 H         139.4001  141.5714  160.0051 H       1  UNL1        0.1563
      5 C         138.8742  141.0799  164.4161 C.ar    1  UNL1        0.0767
      6 C         139.7407  140.9171  163.2027 C.ar    1  UNL1        0.0546
      7 C         138.8511  140.9118  161.9950 C.ar    1  UNL1        0.1552
      8 N         137.4346  141.0713  162.4621 N.ar    1  UNL1       -0.1574
      9 N         137.4489  141.1751  163.9583 N.ar    1  UNL1       -0.2745
     10 H         136.6611  141.2863  164.5382 H       1  UNL1        0.1890
     11 C         140.2996  141.2519  168.6809 C.ar    1  UNL1        0.1387
     12 C         139.5814  140.0345  168.1786 C.ar    1  UNL1        0.0369
     13 C         139.1063  139.9772  166.7571 C.ar    1  UNL1        0.0046
     14 C         139.3493  141.1372  165.8377 C.ar    1  UNL1        0.0173
     15 C         140.0674  142.3546  166.3399 C.ar    1  UNL1        0.0046
     16 C         140.5426  142.4120  167.7615 C.ar    1  UNL1        0.0369
     17 C         142.2153  141.6019  170.4007 C.3     1  UNL1        0.2525
     18 O         140.7747  141.3092  170.1025 O.3     1  UNL1       -0.4714
     19 C         140.0420  139.2728  158.5824 C.3     1  UNL1        0.0855
     20 C         140.9392  138.1377  158.1868 C.3     1  UNL1        0.0110
     21 C         142.4088  138.2060  158.4800 C.3     1  UNL1        0.0178
     22 C         142.9371  137.6948  159.7875 C.3     1  UNL1        0.0722
     23 N         143.0873  138.6281  160.9522 N.3     1  UNL1       -0.2712
     24 C         143.4950  140.0314  160.6133 C.3     1  UNL1        0.0739
     25 C         143.7260  141.1879  161.5403 C.3     1  UNL1        0.0388
     26 C         143.6064  141.2267  163.0349 C.3     1  UNL1        0.0949
     27 N         143.2263  140.1187  163.9719 N.am    1  UNL1       -0.2781
     28 C         143.1967  140.4788  165.4277 C.2     1  UNL1        0.2262
     29 C         142.8288  139.4437  166.4491 C.3     1  UNL1        0.0948
     30 O         143.5349  141.8741  165.8621 O.2     1  UNL1       -0.2749
     31 C         142.8719  138.6982  163.6455 C.3     1  UNL1        0.1107
     32 C         142.8100  138.0349  162.3016 C.3     1  UNL1        0.0939
@<TRIPOS>BOND
     1    17    18    1
     2    18    11    1
     3    11    12   ar
     4    12    13   ar
     5    13    14   ar
     6    14     5    1
     7     5     6   ar
     8     6     7   ar
     9     7     1    1
    10     1     2   am
    11     2     3    2
    12     2    19    1
    13    19    20    1
    14    20    21    1
    15    21    22    1
    16    22    23    1
    17    23    24    1
    18    24    25    1
    19    25    26    1
    20    26    27    1
    21    27    28   am
    22    28    29    1
    23    28    30    2
    24    27    31    1
    25    31    32    1
    26     7     8   ar
    27     8     9   ar
    28    14    15   ar
    29    15    16   ar
    30    16    11   ar
    31     9     5   ar
    32    32    23    1
    33     1     4    1
    34     9    10    1
@<TRIPOS>MOLECULE
*****
 32 34 0 0 0
SMALL
GASTEIGER

@<TRIPOS>ATOM
      1 N         138.6019  143.1149  160.3584 N.am    1  UNL1       -0.2679
      2 C         139.8127  143.6127  159.6262 C.2     1  UNL1        0.2272
      3 O         140.9649  144.1943  160.3904 O.2     1  UNL1       -0.2747
      4 H         137.8456  142.7332  159.8568 H       1  UNL1        0.1563
      5 C         138.9135  142.7376  164.2089 C.ar    1  UNL1        0.0767
      6 C         139.2534  142.2932  162.8171 C.ar    1  UNL1        0.0546
      7 C         138.5433  143.1988  161.8549 C.ar    1  UNL1        0.1552
      8 N         137.7645  144.2028  162.6520 N.ar    1  UNL1       -0.1574
      9 N         137.9933  143.9178  164.1068 N.ar    1  UNL1       -0.2745
     10 H         137.6072  144.4176  164.8620 H       1  UNL1        0.1890
     11 C         140.3940  140.8599  168.0209 C.ar    1  UNL1        0.1387
     12 C         139.5923  140.0481  167.0471 C.ar    1  UNL1        0.0369
     13 C         139.0988  140.6740  165.7765 C.ar    1  UNL1        0.0046
     14 C         139.4070  142.1117  165.4795 C.ar    1  UNL1        0.0173
     15 C         140.2087  142.9234  166.4533 C.ar    1  UNL1        0.0046
     16 C         140.7023  142.2976  167.7240 C.ar    1  UNL1        0.0369
     17 C         139.9771  140.1294  170.4791 C.3     1  UNL1        0.2525
     18 O         140.8875  140.2339  169.2917 O.3     1  UNL1       -0.4714
     19 C         139.8712  143.5289  158.1296 C.3     1  UNL1        0.0855
     20 C         140.9430  142.7164  157.4654 C.3     1  UNL1        0.0110
     21 C         140.7463  141.2443  157.2551 C.3     1  UNL1        0.0178
     22 C         139.4275  140.6094  157.5829 C.3     1  UNL1        0.0722
     23 N         139.1997  140.0110  158.9394 N.3     1  UNL1       -0.2712
     24 C         137.8025  140.1230  159.4738 C.3     1  UNL1        0.0739
     25 C         137.2597  139.6314  160.7829 C.3     1  UNL1        0.0388
     26 C         137.9799  138.9063  161.8808 C.3     1  UNL1        0.0949
     27 N         139.4208  138.4937  161.9409 N.am    1  UNL1       -0.2781
     28 C         139.8407  137.7755  163.1890 C.2     1  UNL1        0.2262
     29 C         141.2606  137.3193  163.3502 C.3     1  UNL1        0.0948
     30 O         138.8407  137.5135  164.2759 O.2     1  UNL1       -0.2749
     31 C         140.4974  138.7043  160.9178 C.3     1  UNL1        0.1107
     32 C         140.3989  139.3796  159.5820 C.3     1  UNL1        0.0939
@<TRIPOS>BOND
     1    17    18    1
     2    18    11    1
     3    11    12   ar
     4    12    13   ar
     5    13    14   ar
     6    14     5    1
     7     5     6   ar
     8     6     7   ar
     9     7     1    1
    10     1     2   am
    11     2     3    2
    12     2    19    1
    13    19    20    1
    14    20    21    1
    15    21    22    1
    16    22    23    1
    17    23    24    1
    18    24    25    1
    19    25    26    1
    20    26    27    1
    21    27    28   am
    22    28    29    1
    23    28    30    2
    24    27    31    1
    25    31    32    1
    26     7     8   ar
    27     8     9   ar
    28    14    15   ar
    29    15    16   ar
    30    16    11   ar
    31     9     5   ar
    32    32    23    1
    33     1     4    1
    34     9    10    1
@<TRIPOS>MOLECULE
*****
 32 34 0 0 0
SMALL
GASTEIGER

@<TRIPOS>ATOM
      1 N         141.8827  145.0310  161.2558 N.am    1  UNL1       -0.2679
      2 C         141.9357  144.4948  159.8559 C.2     1  UNL1        0.2272
      3 O         142.7589  143.2790  159.5491 O.2     1  UNL1       -0.2747
      4 H         141.3424  145.8290  161.4572 H       1  UNL1        0.1563
      5 C         143.2058  142.9872  164.2787 C.ar    1  UNL1        0.0767
      6 C         142.0825  143.4369  163.3922 C.ar    1  UNL1        0.0546
      7 C         142.6530  144.3514  162.3489 C.ar    1  UNL1        0.1552
      8 N         144.1288  144.4667  162.5906 N.ar    1  UNL1       -0.1574
      9 N         144.4705  143.6237  163.7832 N.ar    1  UNL1       -0.2745
     10 H         145.3674  143.5084  164.1725 H       1  UNL1        0.1890
     11 C         142.8452  140.2152  167.8051 C.ar    1  UNL1        0.1387
     12 C         142.8138  139.6631  166.4108 C.ar    1  UNL1        0.0369
     13 C         142.9340  140.5871  165.2354 C.ar    1  UNL1        0.0046
     14 C         143.0856  142.0633  165.4542 C.ar    1  UNL1        0.0173
     15 C         143.1171  142.6154  166.8484 C.ar    1  UNL1        0.0046
     16 C         142.9969  141.6915  168.0239 C.ar    1  UNL1        0.0369
     17 C         141.5979  139.4606  169.9556 C.3     1  UNL1        0.2525
     18 O         142.7250  139.2912  168.9806 O.3     1  UNL1       -0.4714
     19 C         141.1654  145.1744  158.7628 C.3     1  UNL1        0.0855
     20 C         140.0162  144.4695  158.1053 C.3     1  UNL1        0.0110
     21 C         139.8048  143.0025  158.3366 C.3     1  UNL1        0.0178
     22 C         138.4807  142.5053  158.8361 C.3     1  UNL1        0.0722
     23 N         138.4072  141.7213  160.1128 N.3     1  UNL1       -0.2712
     24 C         137.8540  140.3321  159.9925 C.3     1  UNL1        0.0739
     25 C         137.6536  139.3086  161.0707 C.3     1  UNL1        0.0388
     26 C         137.9568  139.4215  162.5353 C.3     1  UNL1        0.0949
     27 N         138.5353  140.5857  163.2837 N.am    1  UNL1       -0.2781
     28 C         138.7200  140.3844  164.7585 C.2     1  UNL1        0.2262
     29 C         139.2914  141.4868  165.6002 C.3     1  UNL1        0.0948
     30 O         138.3333  139.0808  165.3918 O.2     1  UNL1       -0.2749
     31 C         138.9535  141.9246  162.7521 C.3     1  UNL1        0.1107
     32 C         138.8964  142.4299  161.3409 C.3     1  UNL1        0.0939
@<TRIPOS>BOND
     1    17    18    1
     2    18    11    1
     3    11    12   ar
     4    12    13   ar
     5    13    14   ar
     6    14     5    1
     7     5     6   ar
     8     6     7   ar
     9     7     1    1
    10     1     2   am
    11     2     3    2
    12     2    19    1
    13    19    20    1
    14    20    21    1
    15    21    22    1
    16    22    23    1
    17    23    24    1
    18    24    25    1
    19    25    26    1
    20    26    27    1
    21    27    28   am
    22    28    29    1
    23    28    30    2
    24    27    31    1
    25    31    32    1
    26     7     8   ar
    27     8     9   ar
    28    14    15   ar
    29    15    16   ar
    30    16    11   ar
    31     9     5   ar
    32    32    23    1
    33     1     4    1
    34     9    10    1
