@<TRIPOS>MOLECULE
*****
 35 39 0 0 0
SMALL
GASTEIGER

@<TRIPOS>ATOM
      1 N         141.5334  140.5006  162.5034 N.ar    1  UNL1       -0.3047
      2 C         140.6555  139.2927  162.6455 C.ar    1  UNL1        0.1441
      3 N         140.7956  138.4688  161.3999 N.ar    1  UNL1       -0.2267
      4 C         141.7600  139.1675  160.4880 C.ar    1  UNL1        0.1010
      5 C         142.2819  138.8225  159.1247 C.ar    1  UNL1        0.0511
      6 C         143.2598  139.7333  158.4434 C.ar    1  UNL1        0.1522
      7 F         143.7818  139.3883  157.0801 F       1  UNL1       -0.2032
      8 C         143.7159  140.9890  159.1254 C.ar    1  UNL1        0.0866
      9 CL        144.6938  141.8998  158.4441 Cl      1  UNL1       -0.0799
     10 C         143.1940  141.3340  160.4887 C.ar    1  UNL1        0.0324
     11 C         142.2161  140.4233  161.1700 C.ar    1  UNL1        0.0802
     12 C         139.7896  138.9661  163.8260 C.ar    1  UNL1        0.0342
     13 C         138.8727  140.0081  164.3947 C.ar    1  UNL1        0.0039
     14 C         138.0067  139.6815  165.5752 C.ar    1  UNL1        0.0115
     15 C         138.0577  138.3128  166.1869 C.ar    1  UNL1        0.0577
     16 CL        137.1918  137.9862  167.3673 Cl      1  UNL1       -0.0822
     17 C         138.9746  137.2708  165.6181 C.ar    1  UNL1        0.0115
     18 C         139.8405  137.5975  164.4377 C.ar    1  UNL1        0.0039
     19 C         141.6996  141.5940  163.5168 C.3     1  UNL1        0.1628
     20 C         141.2885  142.9968  163.1808 C.3     1  UNL1        0.0297
     21 C         140.0622  143.2410  162.3521 C.3     1  UNL1        0.0024
     22 C         139.6511  144.6439  162.0161 C.3     1  UNL1        0.0001
     23 C         140.4663  145.8027  162.5088 C.3     1  UNL1        0.0000
     24 C         141.6925  145.5585  163.3375 C.3     1  UNL1        0.0001
     25 C         142.1036  144.1557  163.6735 C.3     1  UNL1        0.0024
     26 O         143.5777  140.7028  165.3347 O.2     1  UNL1       -0.2731
     27 C         142.2768  141.2845  164.8663 C.2     1  UNL1        0.2431
     28 N         141.4821  141.5712  166.1057 N.am    1  UNL1       -0.3044
     29 H         140.5816  141.9626  166.0335 H       1  UNL1        0.1494
     30 C         142.0594  141.2617  167.4551 C.3     1  UNL1        0.0716
     31 C         141.8138  139.9235  168.0868 C.3     1  UNL1        0.0196
     32 C         142.3911  139.6139  169.4363 C.3     1  UNL1        0.0017
     33 C         143.2139  140.6424  170.1540 C.3     1  UNL1        0.0001
     34 C         143.4594  141.9806  169.5222 C.3     1  UNL1        0.0017
     35 C         142.8821  142.2902  168.1728 C.3     1  UNL1        0.0196
@<TRIPOS>BOND
     1    26    27    2
     2    27    28   am
     3    28    30    1
     4    30    31    1
     5    31    32    1
     6    32    33    1
     7    33    34    1
     8    34    35    1
     9    27    19    1
    10    19    20    1
    11    20    21    1
    12    21    22    1
    13    22    23    1
    14    23    24    1
    15    24    25    1
    16    19     1    1
    17     1     2   ar
    18     2    12    1
    19    12    13   ar
    20    13    14   ar
    21    14    15   ar
    22    15    16    1
    23    15    17   ar
    24    17    18   ar
    25     2     3   ar
    26     3     4   ar
    27     4     5   ar
    28     5     6   ar
    29     6     7    1
    30     6     8   ar
    31     8     9    1
    32     8    10   ar
    33    10    11   ar
    34    35    30    1
    35    25    20    1
    36    11     1   ar
    37    18    12   ar
    38    11     4   ar
    39    28    29    1
@<TRIPOS>MOLECULE
*****
 35 39 0 0 0
SMALL
GASTEIGER

@<TRIPOS>ATOM
      1 N         141.9603  140.8937  165.0481 N.ar    1  UNL1       -0.3047
      2 C         142.4535  139.5147  164.7240 C.ar    1  UNL1        0.1441
      3 N         142.8170  138.8378  166.0122 N.ar    1  UNL1       -0.2267
      4 C         142.5484  139.7984  167.1326 C.ar    1  UNL1        0.1010
      5 C         142.7176  139.6802  168.6183 C.ar    1  UNL1        0.0511
      6 C         142.3574  140.8328  169.5081 C.ar    1  UNL1        0.1522
      7 F         142.5266  140.7147  170.9939 F       1  UNL1       -0.2032
      8 C         141.8279  142.1034  168.9122 C.ar    1  UNL1        0.0866
      9 CL        141.4676  143.2560  169.8022 Cl      1  UNL1       -0.0799
     10 C         141.6587  142.2216  167.4265 C.ar    1  UNL1        0.0324
     11 C         142.0189  141.0691  166.5367 C.ar    1  UNL1        0.0802
     12 C         142.5638  138.9175  163.3524 C.ar    1  UNL1        0.0342
     13 C         143.9143  138.6757  162.7461 C.ar    1  UNL1        0.0039
     14 C         144.0246  138.0785  161.3745 C.ar    1  UNL1        0.0115
     15 C         142.7844  137.7231  160.6093 C.ar    1  UNL1        0.0577
     16 CL        142.8947  137.1259  159.2378 Cl      1  UNL1       -0.0822
     17 C         141.4339  137.9648  161.2157 C.ar    1  UNL1        0.0115
     18 C         141.3236  138.5621  162.5872 C.ar    1  UNL1        0.0039
     19 C         141.4908  141.9177  164.0576 C.3     1  UNL1        0.1628
     20 C         140.2272  142.6844  164.3133 C.3     1  UNL1        0.0297
     21 C         138.8991  141.9929  164.2231 C.3     1  UNL1        0.0024
     22 C         137.6354  142.7596  164.4788 C.3     1  UNL1        0.0001
     23 C         137.6999  144.2178  164.8246 C.3     1  UNL1        0.0000
     24 C         139.0279  144.9092  164.9148 C.3     1  UNL1        0.0001
     25 C         140.2916  144.1425  164.6591 C.3     1  UNL1        0.0024
     26 O         143.6857  142.6414  162.5459 O.2     1  UNL1       -0.2731
     27 C         142.2850  142.1749  162.8113 C.2     1  UNL1        0.2431
     28 N         141.6598  141.9570  161.4653 N.am    1  UNL1       -0.3044
     29 H         140.7283  141.6452  161.3998 H       1  UNL1        0.1494
     30 C         142.4540  142.2143  160.2191 C.3     1  UNL1        0.0716
     31 C         143.4152  141.1787  159.7152 C.3     1  UNL1        0.0196
     32 C         144.2094  141.4359  158.4689 C.3     1  UNL1        0.0017
     33 C         144.0426  142.7286  157.7266 C.3     1  UNL1        0.0001
     34 C         143.0814  143.7641  158.2306 C.3     1  UNL1        0.0017
     35 C         142.2871  143.5070  159.4768 C.3     1  UNL1        0.0196
@<TRIPOS>BOND
     1    26    27    2
     2    27    28   am
     3    28    30    1
     4    30    31    1
     5    31    32    1
     6    32    33    1
     7    33    34    1
     8    34    35    1
     9    27    19    1
    10    19    20    1
    11    20    21    1
    12    21    22    1
    13    22    23    1
    14    23    24    1
    15    24    25    1
    16    19     1    1
    17     1     2   ar
    18     2    12    1
    19    12    13   ar
    20    13    14   ar
    21    14    15   ar
    22    15    16    1
    23    15    17   ar
    24    17    18   ar
    25     2     3   ar
    26     3     4   ar
    27     4     5   ar
    28     5     6   ar
    29     6     7    1
    30     6     8   ar
    31     8     9    1
    32     8    10   ar
    33    10    11   ar
    34    35    30    1
    35    25    20    1
    36    11     1   ar
    37    18    12   ar
    38    11     4   ar
    39    28    29    1
@<TRIPOS>MOLECULE
*****
 35 39 0 0 0
SMALL
GASTEIGER

@<TRIPOS>ATOM
      1 N         140.7482  142.4249  162.0299 N.ar    1  UNL1       -0.3047
      2 C         141.1224  143.3604  163.1411 C.ar    1  UNL1        0.1441
      3 N         141.1096  144.7574  162.5950 N.ar    1  UNL1       -0.2267
      4 C         140.7275  144.6853  161.1463 C.ar    1  UNL1        0.1010
      5 C         140.5541  145.7461  160.1000 C.ar    1  UNL1        0.0511
      6 C         140.1573  145.3653  158.7045 C.ar    1  UNL1        0.1522
      7 F         139.9839  146.4261  157.6582 F       1  UNL1       -0.2032
      8 C         139.9339  143.9237  158.3552 C.ar    1  UNL1        0.0866
      9 CL        139.5371  143.5430  156.9596 Cl      1  UNL1       -0.0799
     10 C         140.1073  142.8630  159.4015 C.ar    1  UNL1        0.0324
     11 C         140.5041  143.2438  160.7970 C.ar    1  UNL1        0.0802
     12 C         141.4516  142.9678  164.5509 C.ar    1  UNL1        0.0342
     13 C         142.8246  142.4676  164.8890 C.ar    1  UNL1        0.0039
     14 C         143.1538  142.0750  166.2987 C.ar    1  UNL1        0.0115
     15 C         142.1099  142.1826  167.3705 C.ar    1  UNL1        0.0577
     16 CL        142.4391  141.7900  168.7803 Cl      1  UNL1       -0.0822
     17 C         140.7368  142.6828  167.0324 C.ar    1  UNL1        0.0115
     18 C         140.4076  143.0754  165.6226 C.ar    1  UNL1        0.0039
     19 C         140.6374  140.9326  162.1333 C.3     1  UNL1        0.1628
     20 C         141.4773  140.0554  161.2530 C.3     1  UNL1        0.0297
     21 C         142.9620  139.9899  161.4569 C.3     1  UNL1        0.0024
     22 C         143.8020  139.1127  160.5766 C.3     1  UNL1        0.0001
     23 C         143.1573  138.3009  159.4925 C.3     1  UNL1        0.0000
     24 C         141.6727  138.3663  159.2887 C.3     1  UNL1        0.0001
     25 C         140.8327  139.2435  160.1689 C.3     1  UNL1        0.0024
     26 O         138.1926  140.2965  163.2491 O.2     1  UNL1       -0.2731
     27 C         139.6867  140.3174  163.1171 C.2     1  UNL1        0.2431
     28 N         140.2150  139.5206  164.2729 N.am    1  UNL1       -0.3044
     29 H         141.1856  139.4012  164.3859 H       1  UNL1        0.1494
     30 C         139.2642  138.9055  165.2566 C.3     1  UNL1        0.0716
     31 C         138.8366  137.4770  165.0936 C.3     1  UNL1        0.0196
     32 C         137.8858  136.8618  166.0774 C.3     1  UNL1        0.0017
     33 C         137.3626  137.6751  167.2240 C.3     1  UNL1        0.0001
     34 C         137.7903  139.1036  167.3869 C.3     1  UNL1        0.0017
     35 C         138.7411  139.7188  166.4033 C.3     1  UNL1        0.0196
@<TRIPOS>BOND
     1    26    27    2
     2    27    28   am
     3    28    30    1
     4    30    31    1
     5    31    32    1
     6    32    33    1
     7    33    34    1
     8    34    35    1
     9    27    19    1
    10    19    20    1
    11    20    21    1
    12    21    22    1
    13    22    23    1
    14    23    24    1
    15    24    25    1
    16    19     1    1
    17     1     2   ar
    18     2    12    1
    19    12    13   ar
    20    13    14   ar
    21    14    15   ar
    22    15    16    1
    23    15    17   ar
    24    17    18   ar
    25     2     3   ar
    26     3     4   ar
    27     4     5   ar
    28     5     6   ar
    29     6     7    1
    30     6     8   ar
    31     8     9    1
    32     8    10   ar
    33    10    11   ar
    34    35    30    1
    35    25    20    1
    36    11     1   ar
    37    18    12   ar
    38    11     4   ar
    39    28    29    1
@<TRIPOS>MOLECULE
*****
 35 39 0 0 0
SMALL
GASTEIGER

@<TRIPOS>ATOM
      1 N         139.3465  140.9933  160.2278 N.ar    1  UNL1       -0.3047
      2 C         138.7892  142.3600  160.4953 C.ar    1  UNL1        0.1441
      3 N         138.2606  142.9062  159.2022 N.ar    1  UNL1       -0.2267
      4 C         138.4912  141.8771  158.1355 C.ar    1  UNL1        0.1010
      5 C         138.1767  141.8638  156.6689 C.ar    1  UNL1        0.0511
      6 C         138.5334  140.6682  155.8363 C.ar    1  UNL1        0.1522
      7 F         138.2189  140.6549  154.3696 F       1  UNL1       -0.2032
      8 C         139.2046  139.4860  156.4702 C.ar    1  UNL1        0.0866
      9 CL        139.5613  138.2904  155.6374 Cl      1  UNL1       -0.0799
     10 C         139.5190  139.4993  157.9368 C.ar    1  UNL1        0.0324
     11 C         139.1623  140.6948  158.7694 C.ar    1  UNL1        0.0802
     12 C         138.7648  143.0579  161.8228 C.ar    1  UNL1        0.0342
     13 C         139.8506  144.0295  162.1794 C.ar    1  UNL1        0.0039
     14 C         139.8262  144.7275  163.5069 C.ar    1  UNL1        0.0115
     15 C         138.7160  144.4538  164.4779 C.ar    1  UNL1        0.0577
     16 CL        138.6917  145.1518  165.8054 Cl      1  UNL1       -0.0822
     17 C         137.6303  143.4823  164.1213 C.ar    1  UNL1        0.0115
     18 C         137.6547  142.7843  162.7937 C.ar    1  UNL1        0.0039
     19 C         139.9773  140.0846  161.2409 C.3     1  UNL1        0.1628
     20 C         141.4136  139.6784  161.0929 C.3     1  UNL1        0.0297
     21 C         141.7607  138.2580  160.7581 C.3     1  UNL1        0.0024
     22 C         143.1970  137.8518  160.6100 C.3     1  UNL1        0.0001
     23 C         144.2863  138.8660  160.7967 C.3     1  UNL1        0.0000
     24 C         143.9392  140.2864  161.1315 C.3     1  UNL1        0.0001
     25 C         142.5029  140.6926  161.2796 C.3     1  UNL1        0.0024
     26 O         137.7209  139.2568  162.6011 O.2     1  UNL1       -0.2731
     27 C         139.1717  139.5819  162.4022 C.2     1  UNL1        0.2431
     28 N         139.8418  139.3017  163.7146 N.am    1  UNL1       -0.3044
     29 H         140.8103  139.4477  163.8139 H       1  UNL1        0.1494
     30 C         139.0362  138.7991  164.8758 C.3     1  UNL1        0.0716
     31 C         138.4939  139.7656  165.8866 C.3     1  UNL1        0.0196
     32 C         137.6882  139.2631  167.0479 C.3     1  UNL1        0.0017
     33 C         137.4248  137.7940  167.1982 C.3     1  UNL1        0.0001
     34 C         137.9672  136.8276  166.1873 C.3     1  UNL1        0.0017
     35 C         138.7728  137.3301  165.0261 C.3     1  UNL1        0.0196
@<TRIPOS>BOND
     1    26    27    2
     2    27    28   am
     3    28    30    1
     4    30    31    1
     5    31    32    1
     6    32    33    1
     7    33    34    1
     8    34    35    1
     9    27    19    1
    10    19    20    1
    11    20    21    1
    12    21    22    1
    13    22    23    1
    14    23    24    1
    15    24    25    1
    16    19     1    1
    17     1     2   ar
    18     2    12    1
    19    12    13   ar
    20    13    14   ar
    21    14    15   ar
    22    15    16    1
    23    15    17   ar
    24    17    18   ar
    25     2     3   ar
    26     3     4   ar
    27     4     5   ar
    28     5     6   ar
    29     6     7    1
    30     6     8   ar
    31     8     9    1
    32     8    10   ar
    33    10    11   ar
    34    35    30    1
    35    25    20    1
    36    11     1   ar
    37    18    12   ar
    38    11     4   ar
    39    28    29    1
@<TRIPOS>MOLECULE
*****
 35 39 0 0 0
SMALL
GASTEIGER

@<TRIPOS>ATOM
      1 N         140.9206  141.1645  166.4693 N.ar    1  UNL1       -0.3047
      2 C         139.6755  140.3413  166.3206 C.ar    1  UNL1        0.1441
      3 N         139.0304  140.2287  167.6701 N.ar    1  UNL1       -0.2267
      4 C         139.8769  140.9822  168.6529 C.ar    1  UNL1        0.1010
      5 C         139.7348  141.2164  170.1276 C.ar    1  UNL1        0.0511
      6 C         140.7609  142.0289  170.8602 C.ar    1  UNL1        0.1522
      7 F         140.6189  142.2632  172.3351 F       1  UNL1       -0.2032
      8 C         141.9291  142.6073  170.1181 C.ar    1  UNL1        0.0866
      9 CL        142.9553  143.4199  170.8507 Cl      1  UNL1       -0.0799
     10 C         142.0712  142.3731  168.6433 C.ar    1  UNL1        0.0324
     11 C         141.0451  141.5606  167.9107 C.ar    1  UNL1        0.0802
     12 C         139.1651  139.7370  165.0462 C.ar    1  UNL1        0.0342
     13 C         138.2838  140.5397  164.1357 C.ar    1  UNL1        0.0039
     14 C         137.7734  139.9354  162.8612 C.ar    1  UNL1        0.0115
     15 C         138.1442  138.5282  162.4973 C.ar    1  UNL1        0.0577
     16 CL        137.6338  137.9239  161.2228 Cl      1  UNL1       -0.0822
     17 C         139.0254  137.7255  163.4077 C.ar    1  UNL1        0.0115
     18 C         139.5358  138.3299  164.6822 C.ar    1  UNL1        0.0039
     19 C         141.8739  141.5278  165.3697 C.3     1  UNL1        0.1628
     20 C         143.0998  140.6961  165.1345 C.3     1  UNL1        0.0297
     21 C         143.2424  139.3633  165.8078 C.3     1  UNL1        0.0024
     22 C         144.4683  138.5315  165.5727 C.3     1  UNL1        0.0001
     23 C         145.5516  139.0325  164.6641 C.3     1  UNL1        0.0000
     24 C         145.4090  140.3653  163.9908 C.3     1  UNL1        0.0001
     25 C         144.1831  141.1971  164.2260 C.3     1  UNL1        0.0024
     26 O         141.9486  144.1791  164.6006 O.2     1  UNL1       -0.2731
     27 C         141.6013  142.7230  164.5051 C.2     1  UNL1        0.2431
     28 N         140.8189  142.5670  163.2349 N.am    1  UNL1       -0.3044
     29 H         140.4843  141.6803  162.9686 H       1  UNL1        0.1494
     30 C         140.5464  143.7622  162.3705 C.3     1  UNL1        0.0716
     31 C         141.3069  143.9518  161.0916 C.3     1  UNL1        0.0196
     32 C         141.0344  145.1470  160.2270 C.3     1  UNL1        0.0017
     33 C         140.0014  146.1526  160.6414 C.3     1  UNL1        0.0001
     34 C         139.2408  145.9628  161.9204 C.3     1  UNL1        0.0017
     35 C         139.5133  144.7677  162.7849 C.3     1  UNL1        0.0196
@<TRIPOS>BOND
     1    26    27    2
     2    27    28   am
     3    28    30    1
     4    30    31    1
     5    31    32    1
     6    32    33    1
     7    33    34    1
     8    34    35    1
     9    27    19    1
    10    19    20    1
    11    20    21    1
    12    21    22    1
    13    22    23    1
    14    23    24    1
    15    24    25    1
    16    19     1    1
    17     1     2   ar
    18     2    12    1
    19    12    13   ar
    20    13    14   ar
    21    14    15   ar
    22    15    16    1
    23    15    17   ar
    24    17    18   ar
    25     2     3   ar
    26     3     4   ar
    27     4     5   ar
    28     5     6   ar
    29     6     7    1
    30     6     8   ar
    31     8     9    1
    32     8    10   ar
    33    10    11   ar
    34    35    30    1
    35    25    20    1
    36    11     1   ar
    37    18    12   ar
    38    11     4   ar
    39    28    29    1
@<TRIPOS>MOLECULE
*****
 35 39 0 0 0
SMALL
GASTEIGER

@<TRIPOS>ATOM
      1 N         141.3937  139.3288  159.3016 N.ar    1  UNL1       -0.3047
      2 C         142.8285  139.0958  159.6719 C.ar    1  UNL1        0.1441
      3 N         143.3911  138.0756  158.7271 N.ar    1  UNL1       -0.2267
      4 C         142.3041  137.6782  157.7729 C.ar    1  UNL1        0.1010
      5 C         142.2788  136.7111  156.6266 C.ar    1  UNL1        0.0511
      6 C         141.0191  136.5185  155.8354 C.ar    1  UNL1        0.1522
      7 F         140.9939  135.5514  154.6891 F       1  UNL1       -0.2032
      8 C         139.7847  137.2931  156.1905 C.ar    1  UNL1        0.0866
      9 CL        138.5249  137.1005  155.3993 Cl      1  UNL1       -0.0799
     10 C         139.8099  138.2602  157.3368 C.ar    1  UNL1        0.0324
     11 C         141.0696  138.4527  158.1280 C.ar    1  UNL1        0.0802
     12 C         143.5703  139.7653  160.7905 C.ar    1  UNL1        0.0342
     13 C         144.0479  141.1785  160.6336 C.ar    1  UNL1        0.0039
     14 C         144.7898  141.8481  161.7523 C.ar    1  UNL1        0.0115
     15 C         145.0541  141.1044  163.0278 C.ar    1  UNL1        0.0577
     16 CL        145.7960  141.7739  164.1464 Cl      1  UNL1       -0.0822
     17 C         144.5765  139.6911  163.1847 C.ar    1  UNL1        0.0115
     18 C         143.8346  139.0216  162.0661 C.ar    1  UNL1        0.0039
     19 C         140.4489  140.2724  159.9850 C.3     1  UNL1        0.1628
     20 C         140.2631  141.6630  159.4545 C.3     1  UNL1        0.0297
     21 C         140.8776  142.8280  160.1725 C.3     1  UNL1        0.0024
     22 C         140.6919  144.2187  159.6420 C.3     1  UNL1        0.0001
     23 C         139.8917  144.4445  158.3934 C.3     1  UNL1        0.0000
     24 C         139.2773  143.2796  157.6755 C.3     1  UNL1        0.0001
     25 C         139.4630  141.8889  158.2060 C.3     1  UNL1        0.0024
     26 O         138.2748  139.3903  161.4416 O.2     1  UNL1       -0.2731
     27 C         139.6897  139.8252  161.1991 C.2     1  UNL1        0.2431
     28 N         140.3787  139.7514  162.5294 N.am    1  UNL1       -0.3044
     29 H         141.3291  139.9964  162.6058 H       1  UNL1        0.1494
     30 C         139.6195  139.3043  163.7433 C.3     1  UNL1        0.0716
     31 C         139.5561  137.8471  164.0936 C.3     1  UNL1        0.0196
     32 C         138.7968  137.3999  165.3076 C.3     1  UNL1        0.0017
     33 C         138.1011  138.4098  166.1713 C.3     1  UNL1        0.0001
     34 C         138.1646  139.8670  165.8210 C.3     1  UNL1        0.0017
     35 C         138.9238  140.3142  164.6070 C.3     1  UNL1        0.0196
@<TRIPOS>BOND
     1    26    27    2
     2    27    28   am
     3    28    30    1
     4    30    31    1
     5    31    32    1
     6    32    33    1
     7    33    34    1
     8    34    35    1
     9    27    19    1
    10    19    20    1
    11    20    21    1
    12    21    22    1
    13    22    23    1
    14    23    24    1
    15    24    25    1
    16    19     1    1
    17     1     2   ar
    18     2    12    1
    19    12    13   ar
    20    13    14   ar
    21    14    15   ar
    22    15    16    1
    23    15    17   ar
    24    17    18   ar
    25     2     3   ar
    26     3     4   ar
    27     4     5   ar
    28     5     6   ar
    29     6     7    1
    30     6     8   ar
    31     8     9    1
    32     8    10   ar
    33    10    11   ar
    34    35    30    1
    35    25    20    1
    36    11     1   ar
    37    18    12   ar
    38    11     4   ar
    39    28    29    1
@<TRIPOS>MOLECULE
*****
 35 39 0 0 0
SMALL
GASTEIGER

@<TRIPOS>ATOM
      1 N         140.5766  143.3587  159.7703 N.ar    1  UNL1       -0.3047
      2 C         141.6123  144.3133  160.2861 C.ar    1  UNL1        0.1441
      3 N         141.7549  145.4254  159.2897 N.ar    1  UNL1       -0.2267
      4 C         140.8073  145.1582  158.1580 C.ar    1  UNL1        0.1010
      5 C         140.5134  145.9129  156.8955 C.ar    1  UNL1        0.0511
      6 C         139.4914  145.3903  155.9300 C.ar    1  UNL1        0.1522
      7 F         139.1975  146.1450  154.6674 F       1  UNL1       -0.2032
      8 C         138.7631  144.1130  156.2270 C.ar    1  UNL1        0.0866
      9 CL        137.7410  143.5904  155.2614 Cl      1  UNL1       -0.0799
     10 C         139.0570  143.3583  157.4895 C.ar    1  UNL1        0.0324
     11 C         140.0790  143.8809  158.4551 C.ar    1  UNL1        0.0802
     12 C         142.3721  144.1793  161.5725 C.ar    1  UNL1        0.0342
     13 C         143.6392  143.3778  161.6152 C.ar    1  UNL1        0.0039
     14 C         144.3990  143.2438  162.9016 C.ar    1  UNL1        0.0115
     15 C         143.8916  143.9112  164.1453 C.ar    1  UNL1        0.0577
     16 CL        144.6513  143.7772  165.4317 Cl      1  UNL1       -0.0822
     17 C         142.6244  144.7127  164.1027 C.ar    1  UNL1        0.0115
     18 C         141.8647  144.8467  162.8163 C.ar    1  UNL1        0.0039
     19 C         140.1188  142.1026  160.4503 C.3     1  UNL1        0.1628
     20 C         139.4861  142.1727  161.8084 C.3     1  UNL1        0.0297
     21 C         140.1452  141.5041  162.9784 C.3     1  UNL1        0.0024
     22 C         139.5126  141.5743  164.3366 C.3     1  UNL1        0.0001
     23 C         138.2207  142.3130  164.5250 C.3     1  UNL1        0.0000
     24 C         137.5616  142.9815  163.3551 C.3     1  UNL1        0.0001
     25 C         138.1942  142.9114  161.9969 C.3     1  UNL1        0.0024
     26 O         139.7298  139.4053  160.0027 O.2     1  UNL1       -0.2731
     27 C         140.2936  140.7760  159.7720 C.2     1  UNL1        0.2431
     28 N         141.2061  140.6537  158.5878 N.am    1  UNL1       -0.3044
     29 H         141.6903  141.4440  158.2556 H       1  UNL1        0.1494
     30 C         141.3809  139.3273  157.9096 C.3     1  UNL1        0.0716
     31 C         142.5295  138.4387  158.2851 C.3     1  UNL1        0.0196
     32 C         142.7044  137.1121  157.6069 C.3     1  UNL1        0.0017
     33 C         141.7307  136.6743  156.5533 C.3     1  UNL1        0.0001
     34 C         140.5821  137.5630  156.1778 C.3     1  UNL1        0.0017
     35 C         140.4072  138.8895  156.8560 C.3     1  UNL1        0.0196
@<TRIPOS>BOND
     1    26    27    2
     2    27    28   am
     3    28    30    1
     4    30    31    1
     5    31    32    1
     6    32    33    1
     7    33    34    1
     8    34    35    1
     9    27    19    1
    10    19    20    1
    11    20    21    1
    12    21    22    1
    13    22    23    1
    14    23    24    1
    15    24    25    1
    16    19     1    1
    17     1     2   ar
    18     2    12    1
    19    12    13   ar
    20    13    14   ar
    21    14    15   ar
    22    15    16    1
    23    15    17   ar
    24    17    18   ar
    25     2     3   ar
    26     3     4   ar
    27     4     5   ar
    28     5     6   ar
    29     6     7    1
    30     6     8   ar
    31     8     9    1
    32     8    10   ar
    33    10    11   ar
    34    35    30    1
    35    25    20    1
    36    11     1   ar
    37    18    12   ar
    38    11     4   ar
    39    28    29    1
@<TRIPOS>MOLECULE
*****
 35 39 0 0 0
SMALL
GASTEIGER

@<TRIPOS>ATOM
      1 N         140.9813  140.9032  161.2287 N.ar    1  UNL1       -0.3047
      2 C         141.5211  139.9133  160.2394 C.ar    1  UNL1        0.1441
      3 N         141.1786  138.5368  160.7273 N.ar    1  UNL1       -0.2267
      4 C         140.4272  138.6760  162.0180 C.ar    1  UNL1        0.1010
      5 C         139.8383  137.6600  162.9512 C.ar    1  UNL1        0.0511
      6 C         139.1274  138.1066  164.1942 C.ar    1  UNL1        0.1522
      7 F         138.5385  137.0905  165.1275 F       1  UNL1       -0.2032
      8 C         139.0055  139.5691  164.5041 C.ar    1  UNL1        0.0866
      9 CL        138.2945  140.0157  165.7472 Cl      1  UNL1       -0.0799
     10 C         139.5944  140.5852  163.5709 C.ar    1  UNL1        0.0324
     11 C         140.3053  140.1386  162.3279 C.ar    1  UNL1        0.0802
     12 C         142.2715  140.2421  158.9830 C.ar    1  UNL1        0.0342
     13 C         143.7317  140.5792  159.0479 C.ar    1  UNL1        0.0039
     14 C         144.4821  140.9080  157.7914 C.ar    1  UNL1        0.0115
     15 C         143.7725  140.8997  156.4700 C.ar    1  UNL1        0.0577
     16 CL        144.5229  141.2284  155.2135 Cl      1  UNL1       -0.0822
     17 C         142.3123  140.5625  156.4051 C.ar    1  UNL1        0.0115
     18 C         141.5619  140.2337  157.6615 C.ar    1  UNL1        0.0039
     19 C         141.0972  142.3958  161.1351 C.3     1  UNL1        0.1628
     20 C         141.9461  143.1453  162.1187 C.3     1  UNL1        0.0297
     21 C         141.4596  144.4424  162.6940 C.3     1  UNL1        0.0024
     22 C         142.3085  145.1920  163.6776 C.3     1  UNL1        0.0001
     23 C         143.6440  144.6445  164.0859 C.3     1  UNL1        0.0000
     24 C         144.1306  143.3474  163.5106 C.3     1  UNL1        0.0001
     25 C         143.2816  142.5979  162.5270 C.3     1  UNL1        0.0024
     26 O         138.9377  143.5638  159.8706 O.2     1  UNL1       -0.2731
     27 C         140.3640  143.1390  160.0579 C.2     1  UNL1        0.2431
     28 N         141.1016  143.6207  158.8438 N.am    1  UNL1       -0.3044
     29 H         142.0669  143.4491  158.7539 H       1  UNL1        0.1494
     30 C         140.3684  144.3638  157.7667 C.3     1  UNL1        0.0716
     31 C         140.3837  145.8636  157.7467 C.3     1  UNL1        0.0196
     32 C         139.6505  146.6068  156.6696 C.3     1  UNL1        0.0017
     33 C         138.9021  145.8502  155.6125 C.3     1  UNL1        0.0001
     34 C         138.8869  144.3504  155.6325 C.3     1  UNL1        0.0017
     35 C         139.6201  143.6072  156.7096 C.3     1  UNL1        0.0196
@<TRIPOS>BOND
     1    26    27    2
     2    27    28   am
     3    28    30    1
     4    30    31    1
     5    31    32    1
     6    32    33    1
     7    33    34    1
     8    34    35    1
     9    27    19    1
    10    19    20    1
    11    20    21    1
    12    21    22    1
    13    22    23    1
    14    23    24    1
    15    24    25    1
    16    19     1    1
    17     1     2   ar
    18     2    12    1
    19    12    13   ar
    20    13    14   ar
    21    14    15   ar
    22    15    16    1
    23    15    17   ar
    24    17    18   ar
    25     2     3   ar
    26     3     4   ar
    27     4     5   ar
    28     5     6   ar
    29     6     7    1
    30     6     8   ar
    31     8     9    1
    32     8    10   ar
    33    10    11   ar
    34    35    30    1
    35    25    20    1
    36    11     1   ar
    37    18    12   ar
    38    11     4   ar
    39    28    29    1
@<TRIPOS>MOLECULE
*****
 35 39 0 0 0
SMALL
GASTEIGER

@<TRIPOS>ATOM
      1 N         140.7754  143.1853  159.7463 N.ar    1  UNL1       -0.3047
      2 C         141.6399  144.2431  160.3657 C.ar    1  UNL1        0.1441
      3 N         141.5990  145.4527  159.4795 N.ar    1  UNL1       -0.2267
      4 C         140.7092  145.1424  158.3124 C.ar    1  UNL1        0.1010
      5 C         140.2967  145.9548  157.1209 C.ar    1  UNL1        0.0511
      6 C         139.3753  145.3659  156.0942 C.ar    1  UNL1        0.1522
      7 F         138.9628  146.1784  154.9026 F       1  UNL1       -0.2032
      8 C         138.8663  143.9646  156.2591 C.ar    1  UNL1        0.0866
      9 CL        137.9447  143.3757  155.2324 Cl      1  UNL1       -0.0799
     10 C         139.2787  143.1522  157.4506 C.ar    1  UNL1        0.0324
     11 C         140.2002  143.7411  158.4773 C.ar    1  UNL1        0.0802
     12 C         142.4101  144.1141  161.6464 C.ar    1  UNL1        0.0342
     13 C         143.6610  143.2875  161.6892 C.ar    1  UNL1        0.0039
     14 C         144.4312  143.1585  162.9699 C.ar    1  UNL1        0.0115
     15 C         143.9504  143.8559  164.2077 C.ar    1  UNL1        0.0577
     16 CL        144.7206  143.7269  165.4884 Cl      1  UNL1       -0.0822
     17 C         142.6994  144.6825  164.1649 C.ar    1  UNL1        0.0115
     18 C         141.9293  144.8115  162.8842 C.ar    1  UNL1        0.0039
     19 C         140.5293  141.8127  160.2988 C.3     1  UNL1        0.1628
     20 C         140.7656  140.6053  159.4408 C.3     1  UNL1        0.0297
     21 C         139.6344  139.6685  159.1363 C.3     1  UNL1        0.0024
     22 C         139.8707  138.4610  158.2783 C.3     1  UNL1        0.0001
     23 C         141.2383  138.1903  157.7247 C.3     1  UNL1        0.0000
     24 C         142.3695  139.1271  158.0292 C.3     1  UNL1        0.0001
     25 C         142.1332  140.3346  158.8872 C.3     1  UNL1        0.0024
     26 O         138.9492  142.2761  162.5158 O.2     1  UNL1       -0.2731
     27 C         140.0468  141.6474  161.7095 C.2     1  UNL1        0.2431
     28 N         140.7235  140.6697  162.6240 N.am    1  UNL1       -0.3044
     29 H         141.4843  140.1365  162.2983 H       1  UNL1        0.1494
     30 C         140.2409  140.5046  164.0345 C.3     1  UNL1        0.0716
     31 C         140.8415  141.3294  165.1340 C.3     1  UNL1        0.0196
     32 C         140.3590  141.1643  166.5448 C.3     1  UNL1        0.0017
     33 C         139.2759  140.1743  166.8559 C.3     1  UNL1        0.0001
     34 C         138.6753  139.3495  165.7563 C.3     1  UNL1        0.0017
     35 C         139.1578  139.5146  164.3457 C.3     1  UNL1        0.0196
@<TRIPOS>BOND
     1    26    27    2
     2    27    28   am
     3    28    30    1
     4    30    31    1
     5    31    32    1
     6    32    33    1
     7    33    34    1
     8    34    35    1
     9    27    19    1
    10    19    20    1
    11    20    21    1
    12    21    22    1
    13    22    23    1
    14    23    24    1
    15    24    25    1
    16    19     1    1
    17     1     2   ar
    18     2    12    1
    19    12    13   ar
    20    13    14   ar
    21    14    15   ar
    22    15    16    1
    23    15    17   ar
    24    17    18   ar
    25     2     3   ar
    26     3     4   ar
    27     4     5   ar
    28     5     6   ar
    29     6     7    1
    30     6     8   ar
    31     8     9    1
    32     8    10   ar
    33    10    11   ar
    34    35    30    1
    35    25    20    1
    36    11     1   ar
    37    18    12   ar
    38    11     4   ar
    39    28    29    1
