@<TRIPOS>MOLECULE
*****
 31 34 0 0 0
SMALL
GASTEIGER

@<TRIPOS>ATOM
      1 C         138.8365  139.2777  166.4804 C.3     1  UNL1        0.0036
      2 C         140.1019  139.9618  166.9055 C.3     1  UNL1        0.0382
      3 C         139.1073  139.7758  168.0128 C.3     1  UNL1        0.0037
      4 C         139.4261  140.2596  169.3963 C.3     1  UNL1        0.0057
      5 C         140.7395  140.9294  169.6726 C.3     1  UNL1        0.0669
      6 C         141.7341  141.1155  168.5653 C.3     1  UNL1        0.0058
      7 C         141.4153  140.6317  167.1818 C.3     1  UNL1        0.0050
      8 C         142.1922  140.6752  165.8994 C.3     1  UNL1        0.0198
      9 C         141.3590  140.0322  164.8305 C.3     1  UNL1        0.0978
     10 C         140.0671  139.5914  165.4524 C.3     1  UNL1        0.1801
     11 N         141.7492  139.8603  163.3924 N.3     1  UNL1       -0.2697
     12 C         141.5256  140.9768  162.4160 C.3     1  UNL1        0.0722
     13 C         141.9158  140.8049  160.9779 C.3     1  UNL1        0.0187
     14 C         142.5296  139.5165  160.5162 C.3     1  UNL1        0.0183
     15 C         142.7531  138.4000  161.4925 C.3     1  UNL1        0.0670
     16 N         143.3669  137.1115  161.0308 N.3     1  UNL1       -0.3211
     17 C         142.3629  138.5719  162.9307 C.3     1  UNL1        0.0878
     18 H         143.4443  136.4698  161.8199 H       1  UNL1        0.1189
     19 H         144.2949  137.2945  160.6491 H       1  UNL1        0.1189
     20 C         141.0583  141.4132  171.0562 C.3     1  UNL1        0.3184
     21 F         140.2481  142.5161  171.6704 F       1  UNL1       -0.1984
     22 F         142.1873  140.7941  171.8257 F       1  UNL1       -0.1984
     23 O         138.9386  138.9012  164.7452 O.3     1  UNL1       -0.4778
     24 C         138.6356  139.2328  163.3142 C.ar    1  UNL1        0.1385
     25 C         138.0434  140.5652  162.9621 C.ar    1  UNL1        0.0376
     26 C         137.7404  140.8968  161.5309 C.ar    1  UNL1        0.0134
     27 C         138.0295  139.8959  160.4518 C.ar    1  UNL1        0.0686
     28 C         138.6217  138.5634  160.8037 C.ar    1  UNL1        0.0134
     29 C         138.9247  138.2319  162.2349 C.ar    1  UNL1        0.0376
     30 C         137.7266  140.2275  159.0206 C.1     1  UNL1        0.1004
     31 N         137.4236  140.5590  157.5894 N.1     1  UNL1       -0.1908
@<TRIPOS>BOND
     1     2     1    1
     2     2     3    1
     3     3     4    1
     4     4     5    1
     5     5    20    1
     6    20    21    1
     7    20    22    1
     8     5     6    1
     9     7     6    1
    10     7     8    1
    11     8     9    1
    12     9    11    1
    13    11    12    1
    14    12    13    1
    15    13    14    1
    16    14    15    1
    17    15    16    1
    18    15    17    1
    19     9    10    1
    20    10    23    1
    21    23    24    1
    22    24    25   ar
    23    25    26   ar
    24    26    27   ar
    25    27    30    1
    26    30    31    3
    27    27    28   ar
    28    28    29   ar
    29     7     2    1
    30    17    11    1
    31    29    24   ar
    32    10     2    1
    33    16    18    1
    34    16    19    1
@<TRIPOS>MOLECULE
*****
 31 34 0 0 0
SMALL
GASTEIGER

@<TRIPOS>ATOM
      1 C         140.0678  142.6334  165.6531 C.3     1  UNL1        0.0036
      2 C         141.4455  142.4657  166.2220 C.3     1  UNL1        0.0382
      3 C         140.3887  142.7343  167.2520 C.3     1  UNL1        0.0037
      4 C         140.7588  142.8132  168.7034 C.3     1  UNL1        0.0057
      5 C         142.1858  142.6235  169.1249 C.3     1  UNL1        0.0669
      6 C         143.2427  142.3549  168.0950 C.3     1  UNL1        0.0058
      7 C         142.8725  142.2760  166.6435 C.3     1  UNL1        0.0050
      8 C         143.6906  142.0265  165.4112 C.3     1  UNL1        0.0198
      9 C         142.7692  142.0621  164.2281 C.3     1  UNL1        0.0978
     10 C         141.3817  142.3335  164.7292 C.3     1  UNL1        0.1801
     11 N         143.1657  141.8615  162.7954 N.3     1  UNL1       -0.2697
     12 C         143.6537  143.0237  161.9825 C.3     1  UNL1        0.0722
     13 C         144.0502  142.8231  160.5498 C.3     1  UNL1        0.0187
     14 C         143.9587  141.4602  159.9301 C.3     1  UNL1        0.0183
     15 C         143.4706  140.2979  160.7431 C.3     1  UNL1        0.0670
     16 N         143.3790  138.9349  160.1233 N.3     1  UNL1       -0.3211
     17 C         143.0741  140.4986  162.1757 C.3     1  UNL1        0.0878
     18 H         143.0309  138.2701  160.8141 H       1  UNL1        0.1189
     19 H         144.3034  138.6429  159.8061 H       1  UNL1        0.1189
     20 C         142.5559  142.7024  170.5765 C.3     1  UNL1        0.3184
     21 F         143.4991  143.7668  171.0532 F       1  UNL1       -0.1984
     22 F         141.9828  141.7168  171.5512 F       1  UNL1       -0.1984
     23 O         140.1470  142.4520  163.8857 O.3     1  UNL1       -0.4778
     24 C         140.1938  143.2046  162.5891 C.ar    1  UNL1        0.1385
     25 C         140.0053  142.4759  161.2916 C.ar    1  UNL1        0.0376
     26 C         140.0522  143.2287  159.9950 C.ar    1  UNL1        0.0134
     27 C         140.2875  144.7101  159.9958 C.ar    1  UNL1        0.0686
     28 C         140.4761  145.4388  161.2933 C.ar    1  UNL1        0.0134
     29 C         140.4292  144.6861  162.5899 C.ar    1  UNL1        0.0376
     30 C         140.3344  145.4628  158.6992 C.1     1  UNL1        0.1004
     31 N         140.3812  146.2155  157.4026 N.1     1  UNL1       -0.1908
@<TRIPOS>BOND
     1     2     1    1
     2     2     3    1
     3     3     4    1
     4     4     5    1
     5     5    20    1
     6    20    21    1
     7    20    22    1
     8     5     6    1
     9     7     6    1
    10     7     8    1
    11     8     9    1
    12     9    11    1
    13    11    12    1
    14    12    13    1
    15    13    14    1
    16    14    15    1
    17    15    16    1
    18    15    17    1
    19     9    10    1
    20    10    23    1
    21    23    24    1
    22    24    25   ar
    23    25    26   ar
    24    26    27   ar
    25    27    30    1
    26    30    31    3
    27    27    28   ar
    28    28    29   ar
    29     7     2    1
    30    17    11    1
    31    29    24   ar
    32    10     2    1
    33    16    18    1
    34    16    19    1
@<TRIPOS>MOLECULE
*****
 31 34 0 0 0
SMALL
GASTEIGER

@<TRIPOS>ATOM
      1 C         142.6203  139.8949  164.7272 C.3     1  UNL1        0.0036
      2 C         141.9733  140.3973  165.9838 C.3     1  UNL1        0.0382
      3 C         142.9601  139.2897  166.2064 C.3     1  UNL1        0.0037
      4 C         143.2206  138.7852  167.5947 C.3     1  UNL1        0.0057
      5 C         142.4944  139.3882  168.7604 C.3     1  UNL1        0.0669
      6 C         141.5076  140.4958  168.5378 C.3     1  UNL1        0.0058
      7 C         141.2471  141.0004  167.1495 C.3     1  UNL1        0.0050
      8 C         140.3378  142.0719  166.6251 C.3     1  UNL1        0.0198
      9 C         140.5021  142.1312  165.1353 C.3     1  UNL1        0.0978
     10 C         141.5129  141.0962  164.7390 C.3     1  UNL1        0.1801
     11 N         139.7820  143.0620  164.2052 N.3     1  UNL1       -0.2697
     12 C         138.3984  142.7275  163.7321 C.3     1  UNL1        0.0722
     13 C         137.6783  143.6582  162.8020 C.3     1  UNL1        0.0187
     14 C         138.3418  144.9235  162.3450 C.3     1  UNL1        0.0183
     15 C         139.7253  145.2580  162.8181 C.3     1  UNL1        0.0670
     16 N         140.3888  146.5233  162.3611 N.3     1  UNL1       -0.3211
     17 C         140.4454  144.3272  163.7482 C.3     1  UNL1        0.0878
     18 H         141.3179  146.5894  162.7769 H       1  UNL1        0.1189
     19 H         139.8287  147.3249  162.6512 H       1  UNL1        0.1189
     20 C         142.7549  138.8837  170.1488 C.3     1  UNL1        0.3184
     21 F         142.8870  137.4106  170.3990 F       1  UNL1       -0.1984
     22 F         142.8833  139.8522  171.2870 F       1  UNL1       -0.1984
     23 O         141.9810  140.8103  163.3429 O.3     1  UNL1       -0.4778
     24 C         140.9905  140.7432  162.2186 C.ar    1  UNL1        0.1385
     25 C         139.9353  139.6770  162.2112 C.ar    1  UNL1        0.0376
     26 C         138.9448  139.6100  161.0868 C.ar    1  UNL1        0.0134
     27 C         139.0093  140.6090  159.9698 C.ar    1  UNL1        0.0686
     28 C         140.0644  141.6751  159.9771 C.ar    1  UNL1        0.0134
     29 C         141.0550  141.7422  161.1015 C.ar    1  UNL1        0.0376
     30 C         138.0187  140.5419  158.8454 C.1     1  UNL1        0.1004
     31 N         137.0281  140.4748  157.7210 N.1     1  UNL1       -0.1908
@<TRIPOS>BOND
     1     2     1    1
     2     2     3    1
     3     3     4    1
     4     4     5    1
     5     5    20    1
     6    20    21    1
     7    20    22    1
     8     5     6    1
     9     7     6    1
    10     7     8    1
    11     8     9    1
    12     9    11    1
    13    11    12    1
    14    12    13    1
    15    13    14    1
    16    14    15    1
    17    15    16    1
    18    15    17    1
    19     9    10    1
    20    10    23    1
    21    23    24    1
    22    24    25   ar
    23    25    26   ar
    24    26    27   ar
    25    27    30    1
    26    30    31    3
    27    27    28   ar
    28    28    29   ar
    29     7     2    1
    30    17    11    1
    31    29    24   ar
    32    10     2    1
    33    16    18    1
    34    16    19    1
@<TRIPOS>MOLECULE
*****
 31 34 0 0 0
SMALL
GASTEIGER

@<TRIPOS>ATOM
      1 C         139.5557  139.5349  166.0692 C.3     1  UNL1        0.0036
      2 C         139.9579  140.9167  166.4921 C.3     1  UNL1        0.0382
      3 C         139.5971  140.0106  167.6317 C.3     1  UNL1        0.0037
      4 C         139.6588  140.5182  169.0419 C.3     1  UNL1        0.0057
      5 C         140.0813  141.9318  169.3124 C.3     1  UNL1        0.0669
      6 C         140.4421  142.8378  168.1728 C.3     1  UNL1        0.0058
      7 C         140.3804  142.3303  166.7626 C.3     1  UNL1        0.0050
      8 C         140.6752  142.9860  165.4461 C.3     1  UNL1        0.0198
      9 C         140.4349  141.9776  164.3619 C.3     1  UNL1        0.0978
     10 C         139.9915  140.6988  165.0084 C.3     1  UNL1        0.1801
     11 N         140.6076  142.2077  162.8898 N.3     1  UNL1       -0.2697
     12 C         141.9726  142.1277  162.2732 C.3     1  UNL1        0.0722
     13 C         142.1453  142.3579  160.8011 C.3     1  UNL1        0.0187
     14 C         140.9530  142.6680  159.9455 C.3     1  UNL1        0.0183
     15 C         139.5879  142.7479  160.5620 C.3     1  UNL1        0.0670
     16 N         138.3955  143.0581  159.7064 N.3     1  UNL1       -0.3211
     17 C         139.4152  142.5178  162.0342 C.3     1  UNL1        0.0878
     18 H         137.5560  143.0728  160.2857 H       1  UNL1        0.1189
     19 H         138.2988  142.3427  158.9858 H       1  UNL1        0.1189
     20 C         140.1429  142.4393  170.7226 C.3     1  UNL1        0.3184
     21 F         139.1877  143.5014  171.1799 F       1  UNL1       -0.1984
     22 F         141.1600  141.8846  171.6755 F       1  UNL1       -0.1984
     23 O         139.6431  139.4254  164.2962 O.3     1  UNL1       -0.4778
     24 C         140.3317  139.0720  163.0115 C.ar    1  UNL1        0.1385
     25 C         139.5639  139.0768  161.7229 C.ar    1  UNL1        0.0376
     26 C         140.2527  138.7233  160.4381 C.ar    1  UNL1        0.0134
     27 C         141.7093  138.3650  160.4418 C.ar    1  UNL1        0.0686
     28 C         142.4771  138.3602  161.7304 C.ar    1  UNL1        0.0134
     29 C         141.7884  138.7136  163.0152 C.ar    1  UNL1        0.0376
     30 C         142.3980  138.0115  159.1571 C.1     1  UNL1        0.1004
     31 N         143.0868  137.6580  157.8723 N.1     1  UNL1       -0.1908
@<TRIPOS>BOND
     1     2     1    1
     2     2     3    1
     3     3     4    1
     4     4     5    1
     5     5    20    1
     6    20    21    1
     7    20    22    1
     8     5     6    1
     9     7     6    1
    10     7     8    1
    11     8     9    1
    12     9    11    1
    13    11    12    1
    14    12    13    1
    15    13    14    1
    16    14    15    1
    17    15    16    1
    18    15    17    1
    19     9    10    1
    20    10    23    1
    21    23    24    1
    22    24    25   ar
    23    25    26   ar
    24    26    27   ar
    25    27    30    1
    26    30    31    3
    27    27    28   ar
    28    28    29   ar
    29     7     2    1
    30    17    11    1
    31    29    24   ar
    32    10     2    1
    33    16    18    1
    34    16    19    1
@<TRIPOS>MOLECULE
*****
 31 34 0 0 0
SMALL
GASTEIGER

@<TRIPOS>ATOM
      1 C         142.3312  139.6196  164.6786 C.3     1  UNL1        0.0036
      2 C         141.8858  140.2434  165.9680 C.3     1  UNL1        0.0382
      3 C         142.7772  139.0498  166.1436 C.3     1  UNL1        0.0037
      4 C         143.1443  138.5842  167.5214 C.3     1  UNL1        0.0057
      5 C         142.6201  139.3121  168.7236 C.3     1  UNL1        0.0669
      6 C         141.7287  140.5056  168.5481 C.3     1  UNL1        0.0058
      7 C         141.3615  140.9713  167.1703 C.3     1  UNL1        0.0050
      8 C         140.5084  142.1072  166.6888 C.3     1  UNL1        0.0198
      9 C         140.5054  142.0814  165.1890 C.3     1  UNL1        0.0978
     10 C         141.3567  140.9295  164.7436 C.3     1  UNL1        0.1801
     11 N         139.7788  143.0394  164.2922 N.3     1  UNL1       -0.2697
     12 C         138.3721  142.7447  163.8628 C.3     1  UNL1        0.0722
     13 C         137.6454  143.7027  162.9660 C.3     1  UNL1        0.0187
     14 C         138.3255  144.9552  162.4984 C.3     1  UNL1        0.0183
     15 C         139.7322  145.2498  162.9278 C.3     1  UNL1        0.0670
     16 N         140.4123  146.5024  162.4603 N.3     1  UNL1       -0.3211
     17 C         140.4588  144.2919  163.8246 C.3     1  UNL1        0.0878
     18 H         141.3561  146.5408  162.8452 H       1  UNL1        0.1189
     19 H         139.8829  147.3150  162.7763 H       1  UNL1        0.1189
     20 C         142.9873  138.8464  170.1015 C.3     1  UNL1        0.3184
     21 F         142.7970  137.4082  170.4826 F       1  UNL1       -0.1984
     22 F         143.5448  139.8190  171.0981 F       1  UNL1       -0.1984
     23 O         141.6307  140.5332  163.3231 O.3     1  UNL1       -0.4778
     24 C         141.7265  141.5835  162.2565 C.ar    1  UNL1        0.1385
     25 C         140.6520  141.6960  161.2160 C.ar    1  UNL1        0.0376
     26 C         140.7478  142.7464  160.1494 C.ar    1  UNL1        0.0134
     27 C         141.9181  143.6843  160.1234 C.ar    1  UNL1        0.0686
     28 C         142.9927  143.5718  161.1639 C.ar    1  UNL1        0.0134
     29 C         142.8969  142.5214  162.2305 C.ar    1  UNL1        0.0376
     30 C         142.0140  144.7346  159.0568 C.1     1  UNL1        0.1004
     31 N         142.1098  145.7850  157.9903 N.1     1  UNL1       -0.1908
@<TRIPOS>BOND
     1     2     1    1
     2     2     3    1
     3     3     4    1
     4     4     5    1
     5     5    20    1
     6    20    21    1
     7    20    22    1
     8     5     6    1
     9     7     6    1
    10     7     8    1
    11     8     9    1
    12     9    11    1
    13    11    12    1
    14    12    13    1
    15    13    14    1
    16    14    15    1
    17    15    16    1
    18    15    17    1
    19     9    10    1
    20    10    23    1
    21    23    24    1
    22    24    25   ar
    23    25    26   ar
    24    26    27   ar
    25    27    30    1
    26    30    31    3
    27    27    28   ar
    28    28    29   ar
    29     7     2    1
    30    17    11    1
    31    29    24   ar
    32    10     2    1
    33    16    18    1
    34    16    19    1
@<TRIPOS>MOLECULE
*****
 31 34 0 0 0
SMALL
GASTEIGER

@<TRIPOS>ATOM
      1 C         143.6740  142.6376  166.0857 C.3     1  UNL1        0.0036
      2 C         142.2917  142.4822  166.6469 C.3     1  UNL1        0.0382
      3 C         143.3822  142.3666  167.6703 C.3     1  UNL1        0.0037
      4 C         143.0375  142.1169  169.1086 C.3     1  UNL1        0.0057
      5 C         141.6023  141.9829  169.5236 C.3     1  UNL1        0.0669
      6 C         140.5118  142.0985  168.5002 C.3     1  UNL1        0.0058
      7 C         140.8565  142.3482  167.0619 C.3     1  UNL1        0.0050
      8 C         140.0034  142.5074  165.8384 C.3     1  UNL1        0.0198
      9 C         140.9114  142.7398  164.6672 C.3     1  UNL1        0.0978
     10 C         142.3256  142.7242  165.1670 C.3     1  UNL1        0.1801
     11 N         140.4808  142.9507  163.2459 N.3     1  UNL1       -0.2697
     12 C         140.2379  141.7704  162.3528 C.3     1  UNL1        0.0722
     13 C         139.8072  141.9813  160.9315 C.3     1  UNL1        0.0187
     14 C         139.6195  143.3726  160.4034 C.3     1  UNL1        0.0183
     15 C         139.8624  144.5529  161.2965 C.3     1  UNL1        0.0670
     16 N         139.6747  145.9443  160.7683 N.3     1  UNL1       -0.3211
     17 C         140.2930  144.3420  162.7178 C.3     1  UNL1        0.0878
     18 H         139.8814  146.6185  161.5053 H       1  UNL1        0.1189
     19 H         138.7099  146.0634  160.4594 H       1  UNL1        0.1189
     20 C         141.2577  141.7332  170.9620 C.3     1  UNL1        0.3184
     21 F         142.0568  140.7501  171.7649 F       1  UNL1       -0.1984
     22 F         140.1139  142.4667  171.5973 F       1  UNL1       -0.1984
     23 O         143.5575  142.9169  164.3331 O.3     1  UNL1       -0.4778
     24 C         143.6503  142.2865  162.9753 C.ar    1  UNL1        0.1385
     25 C         143.6940  140.7930  162.8430 C.ar    1  UNL1        0.0376
     26 C         143.7867  140.1626  161.4851 C.ar    1  UNL1        0.0134
     27 C         143.8358  141.0257  160.2593 C.ar    1  UNL1        0.0686
     28 C         143.7921  142.5193  160.3914 C.ar    1  UNL1        0.0134
     29 C         143.6993  143.1496  161.7494 C.ar    1  UNL1        0.0376
     30 C         143.9285  140.3954  158.9014 C.1     1  UNL1        0.1004
     31 N         144.0213  139.7651  157.5434 N.1     1  UNL1       -0.1908
@<TRIPOS>BOND
     1     2     1    1
     2     2     3    1
     3     3     4    1
     4     4     5    1
     5     5    20    1
     6    20    21    1
     7    20    22    1
     8     5     6    1
     9     7     6    1
    10     7     8    1
    11     8     9    1
    12     9    11    1
    13    11    12    1
    14    12    13    1
    15    13    14    1
    16    14    15    1
    17    15    16    1
    18    15    17    1
    19     9    10    1
    20    10    23    1
    21    23    24    1
    22    24    25   ar
    23    25    26   ar
    24    26    27   ar
    25    27    30    1
    26    30    31    3
    27    27    28   ar
    28    28    29   ar
    29     7     2    1
    30    17    11    1
    31    29    24   ar
    32    10     2    1
    33    16    18    1
    34    16    19    1
@<TRIPOS>MOLECULE
*****
 31 34 0 0 0
SMALL
GASTEIGER

@<TRIPOS>ATOM
      1 C         138.6387  138.2578  164.7790 C.3     1  UNL1        0.0036
      2 C         139.5686  139.0651  165.6355 C.3     1  UNL1        0.0382
      3 C         138.2847  138.6903  166.3143 C.3     1  UNL1        0.0037
      4 C         138.0292  139.1237  167.7274 C.3     1  UNL1        0.0057
      5 C         139.0576  139.9319  168.4616 C.3     1  UNL1        0.0669
      6 C         140.3416  140.3067  167.7827 C.3     1  UNL1        0.0058
      7 C         140.5971  139.8733  166.3697 C.3     1  UNL1        0.0050
      8 C         141.7602  140.0909  165.4478 C.3     1  UNL1        0.0198
      9 C         141.4507  139.4172  164.1439 C.3     1  UNL1        0.0978
     10 C         140.0962  138.7832  164.2599 C.3     1  UNL1        0.1801
     11 N         142.3395  139.3833  162.9361 N.3     1  UNL1       -0.2697
     12 C         142.9427  138.0862  162.4848 C.3     1  UNL1        0.0722
     13 C         143.8315  138.0524  161.2770 C.3     1  UNL1        0.0187
     14 C         144.1172  139.3157  160.5204 C.3     1  UNL1        0.0183
     15 C         143.5140  140.6128  160.9717 C.3     1  UNL1        0.0670
     16 N         143.7997  141.8762  160.2151 N.3     1  UNL1       -0.3211
     17 C         142.6252  140.6466  162.1795 C.3     1  UNL1        0.0878
     18 H         143.3122  142.6551  160.6577 H       1  UNL1        0.1189
     19 H         143.4775  141.7762  159.2525 H       1  UNL1        0.1189
     20 C         138.8021  140.3653  169.8748 C.3     1  UNL1        0.3184
     21 F         137.6802  139.7493  170.6569 F       1  UNL1       -0.1984
     22 F         139.6684  141.4148  170.5057 F       1  UNL1       -0.1984
     23 O         139.3927  138.0041  163.1884 O.3     1  UNL1       -0.4778
     24 C         139.0926  138.6479  161.8673 C.ar    1  UNL1        0.1385
     25 C         139.8207  138.2033  160.6336 C.ar    1  UNL1        0.0376
     26 C         139.5205  138.8471  159.3125 C.ar    1  UNL1        0.0134
     27 C         138.4922  139.9356  159.2250 C.ar    1  UNL1        0.0686
     28 C         137.7640  140.3803  160.4588 C.ar    1  UNL1        0.0134
     29 C         138.0642  139.7364  161.7798 C.ar    1  UNL1        0.0376
     30 C         138.1920  140.5795  157.9040 C.1     1  UNL1        0.1004
     31 N         137.8918  141.2234  156.5829 N.1     1  UNL1       -0.1908
@<TRIPOS>BOND
     1     2     1    1
     2     2     3    1
     3     3     4    1
     4     4     5    1
     5     5    20    1
     6    20    21    1
     7    20    22    1
     8     5     6    1
     9     7     6    1
    10     7     8    1
    11     8     9    1
    12     9    11    1
    13    11    12    1
    14    12    13    1
    15    13    14    1
    16    14    15    1
    17    15    16    1
    18    15    17    1
    19     9    10    1
    20    10    23    1
    21    23    24    1
    22    24    25   ar
    23    25    26   ar
    24    26    27   ar
    25    27    30    1
    26    30    31    3
    27    27    28   ar
    28    28    29   ar
    29     7     2    1
    30    17    11    1
    31    29    24   ar
    32    10     2    1
    33    16    18    1
    34    16    19    1
@<TRIPOS>MOLECULE
*****
 31 34 0 0 0
SMALL
GASTEIGER

@<TRIPOS>ATOM
      1 C         139.6403  140.8256  165.8099 C.3     1  UNL1        0.0036
      2 C         140.9153  141.5419  166.1435 C.3     1  UNL1        0.0382
      3 C         140.4475  140.5994  167.2124 C.3     1  UNL1        0.0037
      4 C         141.2418  140.4437  168.4752 C.3     1  UNL1        0.0057
      5 C         142.5040  141.2306  168.6691 C.3     1  UNL1        0.0669
      6 C         142.9718  142.1732  167.6002 C.3     1  UNL1        0.0058
      7 C         142.1775  142.3289  166.3374 C.3     1  UNL1        0.0050
      8 C         142.3882  143.1751  165.1169 C.3     1  UNL1        0.0198
      9 C         141.2563  142.9112  164.1687 C.3     1  UNL1        0.0978
     10 C         140.3460  141.9018  164.8032 C.3     1  UNL1        0.1801
     11 N         141.0678  143.5453  162.8225 N.3     1  UNL1       -0.2697
     12 C         141.7466  142.9638  161.6179 C.3     1  UNL1        0.0722
     13 C         141.5581  143.5979  160.2716 C.3     1  UNL1        0.0187
     14 C         140.6908  144.8134  160.1299 C.3     1  UNL1        0.0183
     15 C         140.0120  145.3949  161.3345 C.3     1  UNL1        0.0670
     16 N         139.1446  146.6105  161.1929 N.3     1  UNL1       -0.3211
     17 C         140.2005  144.7608  162.6808 C.3     1  UNL1        0.0878
     18 H         138.7665  146.8666  162.1050 H       1  UNL1        0.1189
     19 H         138.3777  146.4082  160.5516 H       1  UNL1        0.1189
     20 C         143.2983  141.0750  169.9320 C.3     1  UNL1        0.3184
     21 F         142.9526  139.9882  170.9063 F       1  UNL1       -0.1984
     22 F         144.4385  142.0061  170.2205 F       1  UNL1       -0.1984
     23 O         139.0873  141.3493  164.2028 O.3     1  UNL1       -0.4778
     24 C         139.0635  140.9330  162.7620 C.ar    1  UNL1        0.1385
     25 C         138.2125  141.6810  161.7790 C.ar    1  UNL1        0.0376
     26 C         138.1887  141.2645  160.3382 C.ar    1  UNL1        0.0134
     27 C         139.0160  140.1001  159.8802 C.ar    1  UNL1        0.0686
     28 C         139.8671  139.3520  160.8632 C.ar    1  UNL1        0.0134
     29 C         139.8908  139.7685  162.3040 C.ar    1  UNL1        0.0376
     30 C         138.9922  139.6837  158.4394 C.1     1  UNL1        0.1004
     31 N         138.9685  139.2672  156.9986 N.1     1  UNL1       -0.1908
@<TRIPOS>BOND
     1     2     1    1
     2     2     3    1
     3     3     4    1
     4     4     5    1
     5     5    20    1
     6    20    21    1
     7    20    22    1
     8     5     6    1
     9     7     6    1
    10     7     8    1
    11     8     9    1
    12     9    11    1
    13    11    12    1
    14    12    13    1
    15    13    14    1
    16    14    15    1
    17    15    16    1
    18    15    17    1
    19     9    10    1
    20    10    23    1
    21    23    24    1
    22    24    25   ar
    23    25    26   ar
    24    26    27   ar
    25    27    30    1
    26    30    31    3
    27    27    28   ar
    28    28    29   ar
    29     7     2    1
    30    17    11    1
    31    29    24   ar
    32    10     2    1
    33    16    18    1
    34    16    19    1
@<TRIPOS>MOLECULE
*****
 31 34 0 0 0
SMALL
GASTEIGER

@<TRIPOS>ATOM
      1 C         142.6358  138.7359  166.2385 C.3     1  UNL1        0.0036
      2 C         141.5244  139.6099  166.7395 C.3     1  UNL1        0.0382
      3 C         142.5935  139.3395  167.7563 C.3     1  UNL1        0.0037
      4 C         142.4867  139.9286  169.1316 C.3     1  UNL1        0.0057
      5 C         141.3108  140.7881  169.4901 C.3     1  UNL1        0.0669
      6 C         140.2417  141.0584  168.4734 C.3     1  UNL1        0.0058
      7 C         140.3485  140.4693  167.0980 C.3     1  UNL1        0.0050
      8 C         139.4567  140.5599  165.8953 C.3     1  UNL1        0.0198
      9 C         140.0815  139.7564  164.7934 C.3     1  UNL1        0.0978
     10 C         141.3594  139.1693  165.3152 C.3     1  UNL1        0.1801
     11 N         139.5259  139.5724  163.4123 N.3     1  UNL1       -0.2697
     12 C         138.7521  138.3327  163.0742 C.3     1  UNL1        0.0722
     13 C         138.1965  138.1487  161.6931 C.3     1  UNL1        0.0187
     14 C         138.4147  139.2043  160.6501 C.3     1  UNL1        0.0183
     15 C         139.1884  140.4440  160.9882 C.3     1  UNL1        0.0670
     16 N         139.4067  141.4998  159.9452 N.3     1  UNL1       -0.3211
     17 C         139.7440  140.6281  162.3693 C.3     1  UNL1        0.0878
     18 H         139.9482  142.2661  160.3452 H       1  UNL1        0.1189
     19 H         138.5049  141.8521  159.6241 H       1  UNL1        0.1189
     20 C         141.2040  141.3772  170.8655 C.3     1  UNL1        0.3184
     21 F         140.2035  142.4600  171.1420 F       1  UNL1       -0.1984
     22 F         142.0977  140.8834  171.9643 F       1  UNL1       -0.1984
     23 O         142.3061  138.2951  164.5474 O.3     1  UNL1       -0.4778
     24 C         142.6888  138.6561  163.1428 C.ar    1  UNL1        0.1385
     25 C         143.5429  139.8619  162.8845 C.ar    1  UNL1        0.0376
     26 C         143.9256  140.2229  161.4798 C.ar    1  UNL1        0.0134
     27 C         143.4543  139.3783  160.3334 C.ar    1  UNL1        0.0686
     28 C         142.6001  138.1725  160.5916 C.ar    1  UNL1        0.0134
     29 C         142.2174  137.8115  161.9963 C.ar    1  UNL1        0.0376
     30 C         143.8370  139.7393  158.9287 C.1     1  UNL1        0.1004
     31 N         144.2197  140.1003  157.5240 N.1     1  UNL1       -0.1908
@<TRIPOS>BOND
     1     2     1    1
     2     2     3    1
     3     3     4    1
     4     4     5    1
     5     5    20    1
     6    20    21    1
     7    20    22    1
     8     5     6    1
     9     7     6    1
    10     7     8    1
    11     8     9    1
    12     9    11    1
    13    11    12    1
    14    12    13    1
    15    13    14    1
    16    14    15    1
    17    15    16    1
    18    15    17    1
    19     9    10    1
    20    10    23    1
    21    23    24    1
    22    24    25   ar
    23    25    26   ar
    24    26    27   ar
    25    27    30    1
    26    30    31    3
    27    27    28   ar
    28    28    29   ar
    29     7     2    1
    30    17    11    1
    31    29    24   ar
    32    10     2    1
    33    16    18    1
    34    16    19    1
