@<TRIPOS>MOLECULE
*****
 41 44 0 0 0
SMALL
GASTEIGER

@<TRIPOS>ATOM
      1 C         140.3353  140.2302  163.0115 C.3     1  UNL1        0.0801
      2 C         140.1222  140.2140  164.4962 C.ar    1  UNL1        0.0374
      3 C         140.4154  141.4398  165.3094 C.ar    1  UNL1        0.0023
      4 C         140.2023  141.4236  166.7941 C.ar    1  UNL1        0.0181
      5 C         140.4955  142.6494  167.6073 C.ar    1  UNL1        0.0082
      6 C         140.2824  142.6332  169.0921 C.ar    1  UNL1        0.0347
      7 BR        140.5756  143.8590  169.9053 Br      1  UNL1       -0.0490
      8 C         139.7761  141.3911  169.7635 C.ar    1  UNL1        0.0082
      9 C         139.4829  140.1653  168.9503 C.ar    1  UNL1        0.0197
     10 C         139.6960  140.1815  167.4656 C.ar    1  UNL1        0.0844
     11 N         139.4028  138.9556  166.6524 N.ar    1  UNL1       -0.2119
     12 C         139.6159  138.9719  165.1677 C.ar    1  UNL1        0.2211
     13 O         139.3227  137.7461  164.3544 O.3     1  UNL1       -0.4563
     14 C         140.5448  136.8820  164.4538 C.3     1  UNL1        0.2542
     15 C         141.6787  139.8812  162.4427 C.ar    1  UNL1        0.0148
     16 C         141.8464  138.6343  161.6259 C.ar    1  UNL1       -0.0014
     17 C         143.1897  138.2853  161.0572 C.ar    1  UNL1        0.0029
     18 C         144.3655  139.1832  161.3052 C.ar    1  UNL1        0.0392
     19 C         144.1978  140.4301  162.1220 C.ar    1  UNL1        0.1657
     20 C         142.8543  140.7791  162.6908 C.ar    1  UNL1        0.1702
     21 F         142.6866  142.0260  163.5075 F       1  UNL1       -0.2013
     22 O         145.3734  141.3280  162.3701 O.3     1  UNL1       -0.4692
     23 C         145.8272  141.5989  163.7738 C.3     1  UNL1        0.2526
     24 C         139.2050  140.5955  162.0955 C.3     1  UNL1        0.1203
     25 O         138.7197  139.1766  162.1285 O.3     1  UNL1       -0.3818
     26 H         137.9259  139.0934  161.5772 H       1  UNL1        0.2107
     27 C         139.7971  144.3813  163.1288 C.ar    1  UNL1        0.1578
     28 C         140.6608  144.8524  161.9966 C.ar    1  UNL1        0.1388
     29 N         141.0393  143.9045  160.8974 N.ar    1  UNL1       -0.2071
     30 C         140.5541  142.4856  160.9304 C.ar    1  UNL1        0.2231
     31 C         139.6903  142.0145  162.0625 C.ar    1  UNL1        0.0586
     32 C         139.3118  142.9623  163.1617 C.ar    1  UNL1        0.0411
     33 C         138.5609  144.8560  165.3641 C.3     1  UNL1        0.2525
     34 O         139.4185  145.3291  164.2281 O.3     1  UNL1       -0.4699
     35 O         140.9326  141.5377  159.8311 O.3     1  UNL1       -0.4563
     36 C         142.2279  141.7196  159.0969 C.3     1  UNL1        0.2542
     37 C         138.0746  140.9608  161.1796 C.3     1  UNL1        0.0493
     38 C         137.5965  139.9801  160.1502 C.3     1  UNL1        0.0750
     39 N         138.3415  139.8269  158.8573 N.3     1  UNL1       -0.2702
     40 C         139.4194  138.7915  158.7310 C.3     1  UNL1        0.0897
     41 C         138.0085  140.7090  157.6908 C.3     1  UNL1        0.0897
@<TRIPOS>BOND
     1    33    34    1
     2    34    27    1
     3    27    28   ar
     4    28    29   ar
     5    29    30   ar
     6    30    35    1
     7    35    36    1
     8    30    31   ar
     9    31    24    1
    10    24    25    1
    11    24    37    1
    12    37    38    1
    13    38    39    1
    14    39    40    1
    15    39    41    1
    16    24     1    1
    17     1     2    1
    18     2     3   ar
    19     3     4   ar
    20     4     5   ar
    21     5     6   ar
    22     6     7    1
    23     6     8   ar
    24     8     9   ar
    25     9    10   ar
    26    10    11   ar
    27    11    12   ar
    28    12    13    1
    29    13    14    1
    30     1    15    1
    31    15    16   ar
    32    16    17   ar
    33    17    18   ar
    34    18    19   ar
    35    19    22    1
    36    22    23    1
    37    19    20   ar
    38    20    21    1
    39    31    32   ar
    40    32    27   ar
    41    12     2   ar
    42    20    15   ar
    43    10     4   ar
    44    25    26    1
@<TRIPOS>MOLECULE
*****
 41 44 0 0 0
SMALL
GASTEIGER

@<TRIPOS>ATOM
      1 C         142.3817  141.3507  163.0124 C.3     1  UNL1        0.0801
      2 C         142.0599  142.2674  161.8695 C.ar    1  UNL1        0.0374
      3 C         140.9666  141.9103  160.9066 C.ar    1  UNL1        0.0023
      4 C         140.6448  142.8269  159.7637 C.ar    1  UNL1        0.0181
      5 C         139.5516  142.4698  158.8008 C.ar    1  UNL1        0.0082
      6 C         139.2298  143.3865  157.6579 C.ar    1  UNL1        0.0347
      7 BR        138.1365  143.0294  156.6950 Br      1  UNL1       -0.0490
      8 C         140.0013  144.6602  157.4779 C.ar    1  UNL1        0.0082
      9 C         141.0945  145.0173  158.4408 C.ar    1  UNL1        0.0197
     10 C         141.4163  144.1007  159.5837 C.ar    1  UNL1        0.0844
     11 N         142.5096  144.4578  160.5466 N.ar    1  UNL1       -0.2119
     12 C         142.8314  143.5411  161.6896 C.ar    1  UNL1        0.2211
     13 O         143.9247  143.8982  162.6525 O.3     1  UNL1       -0.4563
     14 C         143.4207  145.0767  163.4316 C.3     1  UNL1        0.2542
     15 C         141.9543  141.7093  164.4048 C.ar    1  UNL1        0.0148
     16 C         140.4955  141.7802  164.7467 C.ar    1  UNL1       -0.0014
     17 C         140.0681  142.1389  166.1390 C.ar    1  UNL1        0.0029
     18 C         141.0995  142.4266  167.1895 C.ar    1  UNL1        0.0392
     19 C         142.5583  142.3557  166.8476 C.ar    1  UNL1        0.1657
     20 C         142.9857  141.9970  165.4552 C.ar    1  UNL1        0.1702
     21 F         144.4445  141.9260  165.1132 F       1  UNL1       -0.2013
     22 O         143.5897  142.6433  167.8980 O.3     1  UNL1       -0.4692
     23 C         143.3679  142.1906  169.3107 C.3     1  UNL1        0.2526
     24 C         143.1309  140.0753  162.7629 C.3     1  UNL1        0.1203
     25 O         144.3268  140.8647  162.3194 O.3     1  UNL1       -0.3818
     26 H         145.0414  140.2573  162.0717 H       1  UNL1        0.2107
     27 C         139.5104  138.4502  162.7907 C.ar    1  UNL1        0.1578
     28 C         139.5431  137.7074  164.0934 C.ar    1  UNL1        0.1388
     29 N         140.7717  137.7538  164.9526 N.ar    1  UNL1       -0.2071
     30 C         141.9677  138.5431  164.5091 C.ar    1  UNL1        0.2231
     31 C         141.9350  139.2860  163.2064 C.ar    1  UNL1        0.0586
     32 C         140.7063  139.2396  162.3472 C.ar    1  UNL1        0.0411
     33 C         137.7674  139.6584  161.2899 C.3     1  UNL1        0.2525
     34 O         138.2817  138.4038  161.9315 O.3     1  UNL1       -0.4699
     35 O         143.1964  138.5895  165.3683 O.3     1  UNL1       -0.4563
     36 C         143.0665  138.7383  166.8552 C.3     1  UNL1        0.2542
     37 C         143.8801  138.8000  162.5134 C.3     1  UNL1        0.0493
     38 C         144.4407  138.5136  161.1519 C.3     1  UNL1        0.0750
     39 N         143.6168  138.7876  159.9287 N.3     1  UNL1       -0.2702
     40 C         143.8145  140.0611  159.1611 C.3     1  UNL1        0.0897
     41 C         142.5953  137.7882  159.4731 C.3     1  UNL1        0.0897
@<TRIPOS>BOND
     1    33    34    1
     2    34    27    1
     3    27    28   ar
     4    28    29   ar
     5    29    30   ar
     6    30    35    1
     7    35    36    1
     8    30    31   ar
     9    31    24    1
    10    24    25    1
    11    24    37    1
    12    37    38    1
    13    38    39    1
    14    39    40    1
    15    39    41    1
    16    24     1    1
    17     1     2    1
    18     2     3   ar
    19     3     4   ar
    20     4     5   ar
    21     5     6   ar
    22     6     7    1
    23     6     8   ar
    24     8     9   ar
    25     9    10   ar
    26    10    11   ar
    27    11    12   ar
    28    12    13    1
    29    13    14    1
    30     1    15    1
    31    15    16   ar
    32    16    17   ar
    33    17    18   ar
    34    18    19   ar
    35    19    22    1
    36    22    23    1
    37    19    20   ar
    38    20    21    1
    39    31    32   ar
    40    32    27   ar
    41    12     2   ar
    42    20    15   ar
    43    10     4   ar
    44    25    26    1
@<TRIPOS>MOLECULE
*****
 41 44 0 0 0
SMALL
GASTEIGER

@<TRIPOS>ATOM
      1 C         141.6767  141.1590  163.2528 C.3     1  UNL1        0.0801
      2 C         142.1441  141.4966  164.6376 C.ar    1  UNL1        0.0374
      3 C         141.3916  140.9830  165.8292 C.ar    1  UNL1        0.0023
      4 C         141.8589  141.3206  167.2140 C.ar    1  UNL1        0.0181
      5 C         141.1064  140.8070  168.4056 C.ar    1  UNL1        0.0082
      6 C         141.5738  141.1446  169.7904 C.ar    1  UNL1        0.0347
      7 BR        140.8213  140.6310  170.9820 Br      1  UNL1       -0.0490
      8 C         142.7936  141.9959  169.9836 C.ar    1  UNL1        0.0082
      9 C         143.5461  142.5095  168.7920 C.ar    1  UNL1        0.0197
     10 C         143.0788  142.1719  167.4072 C.ar    1  UNL1        0.0844
     11 N         143.8313  142.6855  166.2156 N.ar    1  UNL1       -0.2119
     12 C         143.3639  142.3479  164.8308 C.ar    1  UNL1        0.2211
     13 O         144.1164  142.8615  163.6392 O.3     1  UNL1       -0.4563
     14 C         145.3993  142.0856  163.5945 C.3     1  UNL1        0.2542
     15 C         142.4716  140.2127  162.4029 C.ar    1  UNL1        0.0148
     16 C         142.7658  138.8272  162.8969 C.ar    1  UNL1       -0.0014
     17 C         143.5608  137.8809  162.0469 C.ar    1  UNL1        0.0029
     18 C         144.0616  138.3200  160.7028 C.ar    1  UNL1        0.0392
     19 C         143.7674  139.7055  160.2088 C.ar    1  UNL1        0.1657
     20 C         142.9724  140.6518  161.0589 C.ar    1  UNL1        0.1702
     21 F         142.6783  142.0372  160.5649 F       1  UNL1       -0.2013
     22 O         144.2682  140.1446  158.8648 O.3     1  UNL1       -0.4692
     23 C         143.3754  140.0474  157.6634 C.3     1  UNL1        0.2526
     24 C         140.4143  141.7677  162.7181 C.3     1  UNL1        0.1203
     25 O         141.0692  143.1172  162.7083 O.3     1  UNL1       -0.3818
     26 H         140.4407  143.7791  162.3802 H       1  UNL1        0.2107
     27 C         138.7605  138.4115  164.0413 C.ar    1  UNL1        0.1578
     28 C         138.4498  137.7193  162.7474 C.ar    1  UNL1        0.1388
     29 N         138.7939  138.3765  161.4437 N.ar    1  UNL1       -0.2071
     30 C         139.4488  139.7260  161.4340 C.ar    1  UNL1        0.2231
     31 C         139.7595  140.4182  162.7279 C.ar    1  UNL1        0.0586
     32 C         139.4154  139.7610  164.0315 C.ar    1  UNL1        0.0411
     33 C         137.9836  138.5884  166.5142 C.3     1  UNL1        0.2525
     34 O         138.4164  137.7543  165.3451 O.3     1  UNL1       -0.4699
     35 O         139.7929  140.3832  160.1302 O.3     1  UNL1       -0.4563
     36 C         138.9053  140.1913  158.9363 C.3     1  UNL1        0.2542
     37 C         139.1520  142.3764  162.1833 C.3     1  UNL1        0.0493
     38 C         138.2615  143.1738  163.0894 C.3     1  UNL1        0.0750
     39 N         138.6865  144.5370  163.5490 N.3     1  UNL1       -0.2702
     40 C         138.7789  144.8391  165.0153 C.3     1  UNL1        0.0897
     41 C         139.0192  145.5980  162.5423 C.3     1  UNL1        0.0897
@<TRIPOS>BOND
     1    33    34    1
     2    34    27    1
     3    27    28   ar
     4    28    29   ar
     5    29    30   ar
     6    30    35    1
     7    35    36    1
     8    30    31   ar
     9    31    24    1
    10    24    25    1
    11    24    37    1
    12    37    38    1
    13    38    39    1
    14    39    40    1
    15    39    41    1
    16    24     1    1
    17     1     2    1
    18     2     3   ar
    19     3     4   ar
    20     4     5   ar
    21     5     6   ar
    22     6     7    1
    23     6     8   ar
    24     8     9   ar
    25     9    10   ar
    26    10    11   ar
    27    11    12   ar
    28    12    13    1
    29    13    14    1
    30     1    15    1
    31    15    16   ar
    32    16    17   ar
    33    17    18   ar
    34    18    19   ar
    35    19    22    1
    36    22    23    1
    37    19    20   ar
    38    20    21    1
    39    31    32   ar
    40    32    27   ar
    41    12     2   ar
    42    20    15   ar
    43    10     4   ar
    44    25    26    1
@<TRIPOS>MOLECULE
*****
 41 44 0 0 0
SMALL
GASTEIGER

@<TRIPOS>ATOM
      1 C         141.8246  142.1797  163.4297 C.3     1  UNL1        0.0801
      2 C         142.2491  142.2517  164.8666 C.ar    1  UNL1        0.0374
      3 C         141.4161  141.5970  165.9284 C.ar    1  UNL1        0.0023
      4 C         141.8405  141.6689  167.3653 C.ar    1  UNL1        0.0181
      5 C         141.0075  141.0142  168.4271 C.ar    1  UNL1        0.0082
      6 C         141.4320  141.0862  169.8640 C.ar    1  UNL1        0.0347
      7 BR        140.5989  140.4314  170.9258 Br      1  UNL1       -0.0490
      8 C         142.6894  141.8128  170.2391 C.ar    1  UNL1        0.0082
      9 C         143.5224  142.4676  169.1773 C.ar    1  UNL1        0.0197
     10 C         143.0980  142.3956  167.7404 C.ar    1  UNL1        0.0844
     11 N         143.9310  143.0504  166.6786 N.ar    1  UNL1       -0.2119
     12 C         143.5066  142.9784  165.2417 C.ar    1  UNL1        0.2211
     13 O         144.3396  143.6331  164.1799 O.3     1  UNL1       -0.4563
     14 C         143.9553  145.0830  164.1885 C.3     1  UNL1        0.2542
     15 C         141.2005  143.3742  162.7713 C.ar    1  UNL1        0.0148
     16 C         140.0091  144.0379  163.3960 C.ar    1  UNL1       -0.0014
     17 C         139.3850  145.2324  162.7377 C.ar    1  UNL1        0.0029
     18 C         139.9521  145.7633  161.4544 C.ar    1  UNL1        0.0392
     19 C         141.1434  145.0996  160.8297 C.ar    1  UNL1        0.1657
     20 C         141.7676  143.9051  161.4881 C.ar    1  UNL1        0.1702
     21 F         142.9589  143.2414  160.8634 F       1  UNL1       -0.2013
     22 O         141.7106  145.6305  159.5465 O.3     1  UNL1       -0.4692
     23 C         141.5249  144.8640  158.2707 C.3     1  UNL1        0.2526
     24 C         142.0243  140.9132  162.6512 C.3     1  UNL1        0.1203
     25 O         143.5088  141.1261  162.6857 O.3     1  UNL1       -0.3818
     26 H         143.9505  140.3998  162.2185 H       1  UNL1        0.2107
     27 C         138.3224  140.1119  163.8358 C.ar    1  UNL1        0.1578
     28 C         137.5711  140.2745  162.5478 C.ar    1  UNL1        0.1388
     29 N         138.3042  140.6500  161.2942 N.ar    1  UNL1       -0.2071
     30 C         139.7886  140.8629  161.3287 C.ar    1  UNL1        0.2231
     31 C         140.5399  140.7003  162.6167 C.ar    1  UNL1        0.0586
     32 C         139.8068  140.3248  163.8703 C.ar    1  UNL1        0.0411
     33 C         138.2431  138.8431  166.1017 C.3     1  UNL1        0.2525
     34 O         137.5892  139.7365  165.0895 O.3     1  UNL1       -0.4699
     35 O         140.5218  141.2384  160.0750 O.3     1  UNL1       -0.4563
     36 C         139.7551  141.6191  158.8433 C.3     1  UNL1        0.2542
     37 C         142.2241  139.6467  161.8727 C.3     1  UNL1        0.0493
     38 C         142.8727  138.4609  162.5232 C.3     1  UNL1        0.0750
     39 N         142.4096  137.9993  163.8731 N.3     1  UNL1       -0.2702
     40 C         143.1159  138.4701  165.1098 C.3     1  UNL1        0.0897
     41 C         141.2401  137.0669  163.9864 C.3     1  UNL1        0.0897
@<TRIPOS>BOND
     1    33    34    1
     2    34    27    1
     3    27    28   ar
     4    28    29   ar
     5    29    30   ar
     6    30    35    1
     7    35    36    1
     8    30    31   ar
     9    31    24    1
    10    24    25    1
    11    24    37    1
    12    37    38    1
    13    38    39    1
    14    39    40    1
    15    39    41    1
    16    24     1    1
    17     1     2    1
    18     2     3   ar
    19     3     4   ar
    20     4     5   ar
    21     5     6   ar
    22     6     7    1
    23     6     8   ar
    24     8     9   ar
    25     9    10   ar
    26    10    11   ar
    27    11    12   ar
    28    12    13    1
    29    13    14    1
    30     1    15    1
    31    15    16   ar
    32    16    17   ar
    33    17    18   ar
    34    18    19   ar
    35    19    22    1
    36    22    23    1
    37    19    20   ar
    38    20    21    1
    39    31    32   ar
    40    32    27   ar
    41    12     2   ar
    42    20    15   ar
    43    10     4   ar
    44    25    26    1
@<TRIPOS>MOLECULE
*****
 41 44 0 0 0
SMALL
GASTEIGER

@<TRIPOS>ATOM
      1 C         141.4973  141.4301  163.7760 C.3     1  UNL1        0.0801
      2 C         142.3942  141.7670  162.6218 C.ar    1  UNL1        0.0374
      3 C         142.3147  140.9709  161.3529 C.ar    1  UNL1        0.0023
      4 C         143.2115  141.3078  160.1987 C.ar    1  UNL1        0.0181
      5 C         143.1320  140.5117  158.9299 C.ar    1  UNL1        0.0082
      6 C         144.0289  140.8487  157.7757 C.ar    1  UNL1        0.0347
      7 BR        143.9494  140.0526  156.5069 Br      1  UNL1       -0.0490
      8 C         145.0051  141.9816  157.8903 C.ar    1  UNL1        0.0082
      9 C         145.0846  142.7777  159.1592 C.ar    1  UNL1        0.0197
     10 C         144.1878  142.4408  160.3133 C.ar    1  UNL1        0.0844
     11 N         144.2673  143.2369  161.5822 N.ar    1  UNL1       -0.2119
     12 C         143.3704  142.9000  162.7364 C.ar    1  UNL1        0.2211
     13 O         143.4499  143.6961  164.0052 O.3     1  UNL1       -0.4563
     14 C         143.6195  145.1263  163.5860 C.3     1  UNL1        0.2542
     15 C         142.0295  140.6373  164.9328 C.ar    1  UNL1        0.0148
     16 C         142.5512  139.2482  164.7134 C.ar    1  UNL1       -0.0014
     17 C         143.0834  138.4555  165.8702 C.ar    1  UNL1        0.0029
     18 C         143.0939  139.0519  167.2466 C.ar    1  UNL1        0.0392
     19 C         142.5722  140.4410  167.4660 C.ar    1  UNL1        0.1657
     20 C         142.0400  141.2337  166.3091 C.ar    1  UNL1        0.1702
     21 F         141.5183  142.6229  166.5285 F       1  UNL1       -0.2013
     22 O         142.5828  141.0374  168.8423 O.3     1  UNL1       -0.4692
     23 C         143.4516  142.2236  169.1389 C.3     1  UNL1        0.2526
     24 C         140.0682  141.8859  163.7733 C.3     1  UNL1        0.1203
     25 O         140.5201  143.3037  163.9622 O.3     1  UNL1       -0.3818
     26 H         139.7462  143.8872  164.0012 H       1  UNL1        0.2107
     27 C         139.2882  138.3964  162.0514 C.ar    1  UNL1        0.1578
     28 C         138.7126  137.6325  163.2068 C.ar    1  UNL1        0.1388
     29 N         138.5889  138.2863  164.5511 N.ar    1  UNL1       -0.2071
     30 C         139.0408  139.7041  164.7399 C.ar    1  UNL1        0.2231
     31 C         139.6163  140.4681  163.5845 C.ar    1  UNL1        0.0586
     32 C         139.7400  139.8142  162.2402 C.ar    1  UNL1        0.0411
     33 C         139.8303  138.5516  159.5152 C.3     1  UNL1        0.2525
     34 O         139.4119  137.7426  160.7070 O.3     1  UNL1       -0.4699
     35 O         138.9171  140.3580  166.0843 O.3     1  UNL1       -0.4563
     36 C         138.9617  139.5246  167.3306 C.3     1  UNL1        0.2542
     37 C         138.6392  142.3417  163.7706 C.3     1  UNL1        0.0493
     38 C         138.1914  143.4004  162.8070 C.3     1  UNL1        0.0750
     39 N         138.7875  143.4635  161.4319 N.3     1  UNL1       -0.2702
     40 C         139.7975  144.5217  161.1002 C.3     1  UNL1        0.0897
     41 C         138.3736  142.4684  160.3887 C.3     1  UNL1        0.0897
@<TRIPOS>BOND
     1    33    34    1
     2    34    27    1
     3    27    28   ar
     4    28    29   ar
     5    29    30   ar
     6    30    35    1
     7    35    36    1
     8    30    31   ar
     9    31    24    1
    10    24    25    1
    11    24    37    1
    12    37    38    1
    13    38    39    1
    14    39    40    1
    15    39    41    1
    16    24     1    1
    17     1     2    1
    18     2     3   ar
    19     3     4   ar
    20     4     5   ar
    21     5     6   ar
    22     6     7    1
    23     6     8   ar
    24     8     9   ar
    25     9    10   ar
    26    10    11   ar
    27    11    12   ar
    28    12    13    1
    29    13    14    1
    30     1    15    1
    31    15    16   ar
    32    16    17   ar
    33    17    18   ar
    34    18    19   ar
    35    19    22    1
    36    22    23    1
    37    19    20   ar
    38    20    21    1
    39    31    32   ar
    40    32    27   ar
    41    12     2   ar
    42    20    15   ar
    43    10     4   ar
    44    25    26    1
@<TRIPOS>MOLECULE
*****
 41 44 0 0 0
SMALL
GASTEIGER

@<TRIPOS>ATOM
      1 C         142.0212  140.8259  162.9562 C.3     1  UNL1        0.0801
      2 C         142.3186  141.1696  164.3857 C.ar    1  UNL1        0.0374
      3 C         141.4651  140.6099  165.4849 C.ar    1  UNL1        0.0023
      4 C         141.7625  140.9535  166.9143 C.ar    1  UNL1        0.0181
      5 C         140.9089  140.3938  168.0135 C.ar    1  UNL1        0.0082
      6 C         141.2064  140.7375  169.4430 C.ar    1  UNL1        0.0347
      7 BR        140.3528  140.1778  170.5422 Br      1  UNL1       -0.0490
      8 C         142.3574  141.6409  169.7733 C.ar    1  UNL1        0.0082
      9 C         143.2109  142.2006  168.6741 C.ar    1  UNL1        0.0197
     10 C         142.9135  141.8570  167.2447 C.ar    1  UNL1        0.0844
     11 N         143.7671  142.4167  166.1455 N.ar    1  UNL1       -0.2119
     12 C         143.4696  142.0730  164.7160 C.ar    1  UNL1        0.2211
     13 O         144.3232  142.6327  163.6168 O.3     1  UNL1       -0.4563
     14 C         145.6918  142.0538  163.8208 C.3     1  UNL1        0.2542
     15 C         141.3079  141.8128  162.0803 C.ar    1  UNL1        0.0148
     16 C         141.9897  142.3661  160.8641 C.ar    1  UNL1       -0.0014
     17 C         141.2765  143.3531  159.9883 C.ar    1  UNL1        0.0029
     18 C         139.8814  143.7867  160.3285 C.ar    1  UNL1        0.0392
     19 C         139.1996  143.2334  161.5447 C.ar    1  UNL1        0.1657
     20 C         139.9129  142.2464  162.4206 C.ar    1  UNL1        0.1702
     21 F         139.2311  141.6931  163.6367 F       1  UNL1       -0.2013
     22 O         137.8046  143.6670  161.8850 O.3     1  UNL1       -0.4692
     23 C         137.5378  144.3958  163.1686 C.3     1  UNL1        0.2526
     24 C         142.4370  139.4952  162.4026 C.3     1  UNL1        0.1203
     25 O         143.8492  139.9864  162.2826 O.3     1  UNL1       -0.3818
     26 H         144.4071  139.2810  161.9192 H       1  UNL1        0.2107
     27 C         139.1136  137.9768  163.9517 C.ar    1  UNL1        0.1578
     28 C         138.2004  138.0216  162.7626 C.ar    1  UNL1        0.1388
     29 N         138.6994  138.5575  161.4535 N.ar    1  UNL1       -0.2071
     30 C         140.1116  139.0487  161.3335 C.ar    1  UNL1        0.2231
     31 C         141.0248  139.0040  162.5226 C.ar    1  UNL1        0.0586
     32 C         140.5258  138.4681  163.8317 C.ar    1  UNL1        0.0411
     33 C         138.1235  138.3838  166.3190 C.3     1  UNL1        0.2525
     34 O         138.6147  137.4409  165.2609 O.3     1  UNL1       -0.4699
     35 O         140.6105  139.5847  160.0243 O.3     1  UNL1       -0.4563
     36 C         139.6393  139.9143  158.9298 C.3     1  UNL1        0.2542
     37 C         142.8528  138.1646  161.8490 C.3     1  UNL1        0.0493
     38 C         143.8615  138.0953  160.7410 C.3     1  UNL1        0.0750
     39 N         143.4839  138.5268  159.3550 N.3     1  UNL1       -0.2702
     40 C         142.7544  137.5810  158.4476 C.3     1  UNL1        0.0897
     41 C         143.8358  139.9041  158.8763 C.3     1  UNL1        0.0897
@<TRIPOS>BOND
     1    33    34    1
     2    34    27    1
     3    27    28   ar
     4    28    29   ar
     5    29    30   ar
     6    30    35    1
     7    35    36    1
     8    30    31   ar
     9    31    24    1
    10    24    25    1
    11    24    37    1
    12    37    38    1
    13    38    39    1
    14    39    40    1
    15    39    41    1
    16    24     1    1
    17     1     2    1
    18     2     3   ar
    19     3     4   ar
    20     4     5   ar
    21     5     6   ar
    22     6     7    1
    23     6     8   ar
    24     8     9   ar
    25     9    10   ar
    26    10    11   ar
    27    11    12   ar
    28    12    13    1
    29    13    14    1
    30     1    15    1
    31    15    16   ar
    32    16    17   ar
    33    17    18   ar
    34    18    19   ar
    35    19    22    1
    36    22    23    1
    37    19    20   ar
    38    20    21    1
    39    31    32   ar
    40    32    27   ar
    41    12     2   ar
    42    20    15   ar
    43    10     4   ar
    44    25    26    1
@<TRIPOS>MOLECULE
*****
 41 44 0 0 0
SMALL
GASTEIGER

@<TRIPOS>ATOM
      1 C         140.6758  140.9483  162.6724 C.3     1  UNL1        0.0801
      2 C         140.1633  140.6258  164.0448 C.ar    1  UNL1        0.0374
      3 C         140.7848  141.2705  165.2481 C.ar    1  UNL1        0.0023
      4 C         140.2723  140.9482  166.6204 C.ar    1  UNL1        0.0181
      5 C         140.8939  141.5929  167.8238 C.ar    1  UNL1        0.0082
      6 C         140.3813  141.2704  169.1962 C.ar    1  UNL1        0.0347
      7 BR        141.0028  141.9151  170.3995 Br      1  UNL1       -0.0490
      8 C         139.2472  140.3033  169.3652 C.ar    1  UNL1        0.0082
      9 C         138.6257  139.6586  168.1618 C.ar    1  UNL1        0.0197
     10 C         139.1382  139.9810  166.7895 C.ar    1  UNL1        0.0844
     11 N         138.5166  139.3363  165.5861 N.ar    1  UNL1       -0.2119
     12 C         139.0292  139.6588  164.2137 C.ar    1  UNL1        0.2211
     13 O         138.4077  139.0141  163.0104 O.3     1  UNL1       -0.4563
     14 C         138.9087  137.6003  162.9937 C.3     1  UNL1        0.2542
     15 C         141.5665  139.9763  161.9569 C.ar    1  UNL1        0.0148
     16 C         142.8468  139.5232  162.5938 C.ar    1  UNL1       -0.0014
     17 C         143.7375  138.5512  161.8784 C.ar    1  UNL1        0.0029
     18 C         143.3479  138.0323  160.5259 C.ar    1  UNL1        0.0392
     19 C         142.0677  138.4854  159.8890 C.ar    1  UNL1        0.1657
     20 C         141.1770  139.4575  160.6045 C.ar    1  UNL1        0.1702
     21 F         139.8967  139.9106  159.9676 F       1  UNL1       -0.2013
     22 O         141.6781  137.9666  158.5366 O.3     1  UNL1       -0.4692
     23 C         142.6657  137.9986  157.4081 C.3     1  UNL1        0.2526
     24 C         140.2977  142.2427  162.0155 C.3     1  UNL1        0.1203
     25 O         138.8655  141.7995  161.9668 O.3     1  UNL1       -0.3818
     26 H         138.3262  142.4932  161.5558 H       1  UNL1        0.2107
     27 C         143.8113  143.4245  163.4325 C.ar    1  UNL1        0.1578
     28 C         144.5943  143.5722  162.1617 C.ar    1  UNL1        0.1388
     29 N         143.9452  143.2767  160.8422 N.ar    1  UNL1       -0.2071
     30 C         142.5129  142.8335  160.7934 C.ar    1  UNL1        0.2231
     31 C         141.7299  142.6858  162.0642 C.ar    1  UNL1        0.0586
     32 C         142.3791  142.9813  163.3838 C.ar    1  UNL1        0.0411
     33 C         143.9724  143.0400  165.9970 C.3     1  UNL1        0.2525
     34 O         144.4605  143.7199  164.7521 O.3     1  UNL1       -0.4699
     35 O         141.8638  142.5381  159.4738 O.3     1  UNL1       -0.4563
     36 C         142.6806  141.9871  158.3428 C.3     1  UNL1        0.2542
     37 C         139.9195  143.5371  161.3586 C.3     1  UNL1        0.0493
     38 C         139.5046  144.7101  162.1964 C.3     1  UNL1        0.0750
     39 N         138.8343  144.4871  163.5196 N.3     1  UNL1       -0.2702
     40 C         139.6036  144.6827  164.7924 C.3     1  UNL1        0.0897
     41 C         137.3949  144.0685  163.5701 C.3     1  UNL1        0.0897
@<TRIPOS>BOND
     1    33    34    1
     2    34    27    1
     3    27    28   ar
     4    28    29   ar
     5    29    30   ar
     6    30    35    1
     7    35    36    1
     8    30    31   ar
     9    31    24    1
    10    24    25    1
    11    24    37    1
    12    37    38    1
    13    38    39    1
    14    39    40    1
    15    39    41    1
    16    24     1    1
    17     1     2    1
    18     2     3   ar
    19     3     4   ar
    20     4     5   ar
    21     5     6   ar
    22     6     7    1
    23     6     8   ar
    24     8     9   ar
    25     9    10   ar
    26    10    11   ar
    27    11    12   ar
    28    12    13    1
    29    13    14    1
    30     1    15    1
    31    15    16   ar
    32    16    17   ar
    33    17    18   ar
    34    18    19   ar
    35    19    22    1
    36    22    23    1
    37    19    20   ar
    38    20    21    1
    39    31    32   ar
    40    32    27   ar
    41    12     2   ar
    42    20    15   ar
    43    10     4   ar
    44    25    26    1
@<TRIPOS>MOLECULE
*****
 41 44 0 0 0
SMALL
GASTEIGER

@<TRIPOS>ATOM
      1 C         141.6106  142.5493  162.6237 C.3     1  UNL1        0.0801
      2 C         141.9461  142.3630  164.0739 C.ar    1  UNL1        0.0374
      3 C         140.8940  141.8890  165.0322 C.ar    1  UNL1        0.0023
      4 C         141.2294  141.7027  166.4822 C.ar    1  UNL1        0.0181
      5 C         140.1773  141.2288  167.4406 C.ar    1  UNL1        0.0082
      6 C         140.5128  141.0425  168.8907 C.ar    1  UNL1        0.0347
      7 BR        139.4606  140.5685  169.8490 Br      1  UNL1       -0.0490
      8 C         141.9003  141.3301  169.3824 C.ar    1  UNL1        0.0082
      9 C         142.9525  141.8041  168.4241 C.ar    1  UNL1        0.0197
     10 C         142.6170  141.9904  166.9741 C.ar    1  UNL1        0.0844
     11 N         143.6692  142.4643  166.0157 N.ar    1  UNL1       -0.2119
     12 C         143.3337  142.6506  164.5656 C.ar    1  UNL1        0.2211
     13 O         144.3858  143.1246  163.6073 O.3     1  UNL1       -0.4563
     14 C         145.4871  142.1079  163.6665 C.3     1  UNL1        0.2542
     15 C         142.5271  142.0087  161.5664 C.ar    1  UNL1        0.0148
     16 C         143.1152  142.9314  160.5404 C.ar    1  UNL1       -0.0014
     17 C         144.0316  142.3909  159.4831 C.ar    1  UNL1        0.0029
     18 C         144.3600  140.9275  159.4519 C.ar    1  UNL1        0.0392
     19 C         143.7719  140.0048  160.4779 C.ar    1  UNL1        0.1657
     20 C         142.8554  140.5455  161.5352 C.ar    1  UNL1        0.1702
     21 F         142.2673  139.6228  162.5613 F       1  UNL1       -0.2013
     22 O         144.1003  138.5416  160.4467 O.3     1  UNL1       -0.4692
     23 C         143.0339  137.5406  160.1136 C.3     1  UNL1        0.2526
     24 C         140.3586  143.2761  162.2310 C.3     1  UNL1        0.1203
     25 O         140.9087  144.5415  162.8193 O.3     1  UNL1       -0.3818
     26 H         140.2640  145.2574  162.7067 H       1  UNL1        0.2107
     27 C         138.8121  139.6317  161.9546 C.ar    1  UNL1        0.1578
     28 C         138.7084  139.4799  160.4659 C.ar    1  UNL1        0.1388
     29 N         139.1548  140.5935  159.5656 N.ar    1  UNL1       -0.2071
     30 C         139.7049  141.8589  160.1539 C.ar    1  UNL1        0.2231
     31 C         139.8086  142.0107  161.6426 C.ar    1  UNL1        0.0586
     32 C         139.3622  140.8971  162.5429 C.ar    1  UNL1        0.0411
     33 C         138.9149  138.4130  164.2468 C.3     1  UNL1        0.2525
     34 O         138.3656  138.5181  162.8550 O.3     1  UNL1       -0.4699
     35 O         140.1513  142.9725  159.2535 O.3     1  UNL1       -0.4563
     36 C         139.3168  143.3593  158.0687 C.3     1  UNL1        0.2542
     37 C         139.1067  144.0030  161.8382 C.3     1  UNL1        0.0493
     38 C         138.3274  144.7652  162.8685 C.3     1  UNL1        0.0750
     39 N         138.1560  144.2013  164.2479 N.3     1  UNL1       -0.2702
     40 C         138.7152  144.9329  165.4320 C.3     1  UNL1        0.0897
     41 C         137.4254  142.9059  164.4432 C.3     1  UNL1        0.0897
@<TRIPOS>BOND
     1    33    34    1
     2    34    27    1
     3    27    28   ar
     4    28    29   ar
     5    29    30   ar
     6    30    35    1
     7    35    36    1
     8    30    31   ar
     9    31    24    1
    10    24    25    1
    11    24    37    1
    12    37    38    1
    13    38    39    1
    14    39    40    1
    15    39    41    1
    16    24     1    1
    17     1     2    1
    18     2     3   ar
    19     3     4   ar
    20     4     5   ar
    21     5     6   ar
    22     6     7    1
    23     6     8   ar
    24     8     9   ar
    25     9    10   ar
    26    10    11   ar
    27    11    12   ar
    28    12    13    1
    29    13    14    1
    30     1    15    1
    31    15    16   ar
    32    16    17   ar
    33    17    18   ar
    34    18    19   ar
    35    19    22    1
    36    22    23    1
    37    19    20   ar
    38    20    21    1
    39    31    32   ar
    40    32    27   ar
    41    12     2   ar
    42    20    15   ar
    43    10     4   ar
    44    25    26    1
@<TRIPOS>MOLECULE
*****
 41 44 0 0 0
SMALL
GASTEIGER

@<TRIPOS>ATOM
      1 C         140.6694  140.5493  162.8815 C.3     1  UNL1        0.0801
      2 C         140.8007  139.9759  161.5016 C.ar    1  UNL1        0.0374
      3 C         141.6363  140.6795  160.4735 C.ar    1  UNL1        0.0023
      4 C         141.7676  140.1061  159.0937 C.ar    1  UNL1        0.0181
      5 C         142.6032  140.8097  158.0656 C.ar    1  UNL1        0.0082
      6 C         142.7345  140.2363  156.6857 C.ar    1  UNL1        0.0347
      7 BR        143.5701  140.9398  155.6577 Br      1  UNL1       -0.0490
      8 C         142.0304  138.9594  156.3340 C.ar    1  UNL1        0.0082
      9 C         141.1949  138.2559  157.3621 C.ar    1  UNL1        0.0197
     10 C         141.0635  138.8292  158.7419 C.ar    1  UNL1        0.0844
     11 N         140.2280  138.1257  159.7700 N.ar    1  UNL1       -0.2119
     12 C         140.0966  138.6991  161.1499 C.ar    1  UNL1        0.2211
     13 O         139.2611  137.9955  162.1780 O.3     1  UNL1       -0.4563
     14 C         137.8357  138.3287  161.8507 C.3     1  UNL1        0.2542
     15 C         139.6999  141.6640  163.1413 C.ar    1  UNL1        0.0148
     16 C         138.6901  141.5382  164.2434 C.ar    1  UNL1       -0.0014
     17 C         137.7207  142.6529  164.5032 C.ar    1  UNL1        0.0029
     18 C         137.7610  143.8936  163.6609 C.ar    1  UNL1        0.0392
     19 C         138.7708  144.0194  162.5589 C.ar    1  UNL1        0.1657
     20 C         139.7403  142.9046  162.2991 C.ar    1  UNL1        0.1702
     21 F         140.7501  143.0304  161.1970 F       1  UNL1       -0.2013
     22 O         138.8112  145.2599  161.7166 O.3     1  UNL1       -0.4692
     23 C         139.9183  146.2551  161.8999 C.3     1  UNL1        0.2526
     24 C         141.5075  140.0079  164.0016 C.3     1  UNL1        0.1203
     25 O         140.3183  139.2628  164.5313 O.3     1  UNL1       -0.3818
     26 H         140.5729  138.7721  165.3283 H       1  UNL1        0.2107
     27 C         143.9707  142.9871  163.1032 C.ar    1  UNL1        0.1578
     28 C         145.0751  142.2433  162.4124 C.ar    1  UNL1        0.1388
     29 N         144.9902  140.7544  162.2514 N.ar    1  UNL1       -0.2071
     30 C         143.8010  140.0093  162.7811 C.ar    1  UNL1        0.2231
     31 C         142.6967  140.7531  163.4719 C.ar    1  UNL1        0.0586
     32 C         142.7815  142.2419  163.6329 C.ar    1  UNL1        0.0411
     33 C         142.8873  145.2385  163.8156 C.3     1  UNL1        0.2525
     34 O         144.0555  144.4760  163.2643 O.3     1  UNL1       -0.4699
     35 O         143.7162  138.5203  162.6200 O.3     1  UNL1       -0.4563
     36 C         143.9254  137.8988  161.2710 C.3     1  UNL1        0.2542
     37 C         142.3456  139.4666  165.1216 C.3     1  UNL1        0.0493
     38 C         141.7961  139.4240  166.5166 C.3     1  UNL1        0.0750
     39 N         141.3246  140.6862  167.1759 N.3     1  UNL1       -0.2702
     40 C         139.9229  140.7793  167.7016 C.3     1  UNL1        0.0897
     41 C         142.2549  141.8552  167.3094 C.3     1  UNL1        0.0897
@<TRIPOS>BOND
     1    33    34    1
     2    34    27    1
     3    27    28   ar
     4    28    29   ar
     5    29    30   ar
     6    30    35    1
     7    35    36    1
     8    30    31   ar
     9    31    24    1
    10    24    25    1
    11    24    37    1
    12    37    38    1
    13    38    39    1
    14    39    40    1
    15    39    41    1
    16    24     1    1
    17     1     2    1
    18     2     3   ar
    19     3     4   ar
    20     4     5   ar
    21     5     6   ar
    22     6     7    1
    23     6     8   ar
    24     8     9   ar
    25     9    10   ar
    26    10    11   ar
    27    11    12   ar
    28    12    13    1
    29    13    14    1
    30     1    15    1
    31    15    16   ar
    32    16    17   ar
    33    17    18   ar
    34    18    19   ar
    35    19    22    1
    36    22    23    1
    37    19    20   ar
    38    20    21    1
    39    31    32   ar
    40    32    27   ar
    41    12     2   ar
    42    20    15   ar
    43    10     4   ar
    44    25    26    1
