@<TRIPOS>MOLECULE
*****
 30 34 0 0 0
SMALL
GASTEIGER

@<TRIPOS>ATOM
      1 C         139.8840  139.2501  164.9369 C.ar    1  UNL1        0.0681
      2 C         139.3527  140.2464  163.9494 C.ar    1  UNL1        0.0208
      3 C         139.1841  139.8591  162.5101 C.ar    1  UNL1        0.0384
      4 C         139.5467  138.4755  162.0583 C.ar    1  UNL1        0.1385
      5 C         140.0780  137.4792  163.0458 C.ar    1  UNL1        0.0384
      6 C         140.2466  137.8665  164.4851 C.ar    1  UNL1        0.0208
      7 C         137.6974  138.6790  166.9099 C.3     1  UNL1        0.0723
      8 C         138.9593  139.3519  167.3627 C.ar    1  UNL1        0.1268
      9 N         139.1279  139.7392  168.8020 N.ar    1  UNL1       -0.2318
     10 C         140.3898  140.4120  169.2548 C.ar    1  UNL1        0.0872
     11 C         140.5583  140.7993  170.6941 C.ar    1  UNL1        0.0193
     12 C         141.8202  141.4721  171.1468 C.ar    1  UNL1        0.0015
     13 C         142.9134  141.7576  170.1603 C.ar    1  UNL1        0.0003
     14 C         142.7449  141.3703  168.7210 C.ar    1  UNL1        0.0063
     15 C         141.4830  140.6975  168.2683 C.ar    1  UNL1        0.0742
     16 C         141.3144  140.3102  166.8290 C.ar    1  UNL1        0.2669
     17 O         142.4077  140.5957  165.8424 O.2     1  UNL1       -0.2665
     18 N         140.0526  139.6374  166.3762 N.ar    1  UNL1       -0.2626
     19 O         139.3781  138.0882  160.6190 O.3     1  UNL1       -0.4792
     20 C         140.4643  138.3889  159.6292 C.3     1  UNL1        0.1660
     21 C         141.8561  138.6788  160.1080 C.3     1  UNL1        0.0449
     22 C         142.9423  138.9794  159.1182 C.3     1  UNL1        0.0197
     23 C         142.6368  138.9902  157.6497 C.3     1  UNL1        0.0577
     24 C         141.2452  138.7004  157.1709 C.3     1  UNL1        0.0197
     25 C         140.1589  138.3997  158.1607 C.3     1  UNL1        0.0449
     26 N         143.7231  139.2909  156.6599 N.3     1  UNL1       -0.2740
     27 C         144.6987  140.4275  156.7396 C.3     1  UNL1        0.0721
     28 C         145.6030  140.3469  155.5456 C.3     1  UNL1        0.0188
     29 C         145.1863  139.1604  154.7279 C.3     1  UNL1        0.0188
     30 C         144.0245  138.5077  155.4165 C.3     1  UNL1        0.0721
@<TRIPOS>BOND
     1     7     8    1
     2     8     9   ar
     3     9    10   ar
     4    10    11   ar
     5    11    12   ar
     6    12    13   ar
     7    13    14   ar
     8    14    15   ar
     9    15    16   ar
    10    16    17    2
    11    16    18   ar
    12    18     1    1
    13     1     2   ar
    14     2     3   ar
    15     3     4   ar
    16     4    19    1
    17    20    19    1
    18    20    21    1
    19    21    22    1
    20    22    23    1
    21    23    26    1
    22    26    27    1
    23    27    28    1
    24    28    29    1
    25    29    30    1
    26    23    24    1
    27    24    25    1
    28     4     5   ar
    29     5     6   ar
    30    18     8   ar
    31     6     1   ar
    32    15    10   ar
    33    25    20    1
    34    30    26    1
@<TRIPOS>MOLECULE
*****
 30 34 0 0 0
SMALL
GASTEIGER

@<TRIPOS>ATOM
      1 C         141.2971  139.0500  164.9523 C.ar    1  UNL1        0.0681
      2 C         140.3779  137.8949  164.6864 C.ar    1  UNL1        0.0208
      3 C         140.1126  137.4566  163.2766 C.ar    1  UNL1        0.0384
      4 C         140.7664  138.1736  162.1328 C.ar    1  UNL1        0.1385
      5 C         141.6856  139.3287  162.3987 C.ar    1  UNL1        0.0384
      6 C         141.9509  139.7670  163.8085 C.ar    1  UNL1        0.0208
      7 C         143.7239  138.0473  166.4032 C.3     1  UNL1        0.0723
      8 C         142.7758  138.9869  167.0876 C.ar    1  UNL1        0.1268
      9 N         143.0411  139.4251  168.4974 N.ar    1  UNL1       -0.2318
     10 C         142.0930  140.3647  169.1818 C.ar    1  UNL1        0.0872
     11 C         142.3583  140.8028  170.5916 C.ar    1  UNL1        0.0193
     12 C         141.4103  141.7424  171.2760 C.ar    1  UNL1        0.0015
     13 C         140.1969  142.2438  170.5505 C.ar    1  UNL1        0.0003
     14 C         139.9316  141.8056  169.1407 C.ar    1  UNL1        0.0063
     15 C         140.8796  140.8661  168.4564 C.ar    1  UNL1        0.0742
     16 C         140.6143  140.4278  167.0465 C.ar    1  UNL1        0.2669
     17 O         139.4009  140.9292  166.3211 O.2     1  UNL1       -0.2665
     18 N         141.5624  139.4883  166.3622 N.ar    1  UNL1       -0.2626
     19 O         140.5011  137.7353  160.7229 O.3     1  UNL1       -0.4792
     20 C         139.7503  138.6351  159.7866 C.3     1  UNL1        0.1660
     21 C         140.0879  138.6463  158.3251 C.3     1  UNL1        0.0449
     22 C         139.3371  139.5460  157.3888 C.3     1  UNL1        0.0197
     23 C         138.2486  140.4346  157.9139 C.3     1  UNL1        0.0577
     24 C         137.9110  140.4233  159.3754 C.3     1  UNL1        0.0197
     25 C         138.6618  139.5236  160.3117 C.3     1  UNL1        0.0449
     26 N         137.4977  141.3343  156.9776 N.3     1  UNL1       -0.2740
     27 C         137.8191  142.7704  156.6875 C.3     1  UNL1        0.0721
     28 C         136.8137  143.2796  155.6976 C.3     1  UNL1        0.0188
     29 C         135.8709  142.1581  155.3759 C.3     1  UNL1        0.0188
     30 C         136.2936  140.9558  156.1670 C.3     1  UNL1        0.0721
@<TRIPOS>BOND
     1     7     8    1
     2     8     9   ar
     3     9    10   ar
     4    10    11   ar
     5    11    12   ar
     6    12    13   ar
     7    13    14   ar
     8    14    15   ar
     9    15    16   ar
    10    16    17    2
    11    16    18   ar
    12    18     1    1
    13     1     2   ar
    14     2     3   ar
    15     3     4   ar
    16     4    19    1
    17    20    19    1
    18    20    21    1
    19    21    22    1
    20    22    23    1
    21    23    26    1
    22    26    27    1
    23    27    28    1
    24    28    29    1
    25    29    30    1
    26    23    24    1
    27    24    25    1
    28     4     5   ar
    29     5     6   ar
    30    18     8   ar
    31     6     1   ar
    32    15    10   ar
    33    25    20    1
    34    30    26    1
@<TRIPOS>MOLECULE
*****
 30 34 0 0 0
SMALL
GASTEIGER

@<TRIPOS>ATOM
      1 C         138.9185  140.4293  164.8220 C.ar    1  UNL1        0.0681
      2 C         137.7539  141.2063  164.2838 C.ar    1  UNL1        0.0208
      3 C         137.3991  141.1149  162.8293 C.ar    1  UNL1        0.0384
      4 C         138.2090  140.2464  161.9130 C.ar    1  UNL1        0.1385
      5 C         139.3737  139.4693  162.4512 C.ar    1  UNL1        0.0384
      6 C         139.7284  139.5607  163.9057 C.ar    1  UNL1        0.0208
      7 C         137.8018  138.4363  166.7665 C.3     1  UNL1        0.0723
      8 C         138.7149  139.5242  167.2489 C.ar    1  UNL1        0.1268
      9 N         139.0696  139.6157  168.7035 N.ar    1  UNL1       -0.2318
     10 C         139.9827  140.7036  169.1859 C.ar    1  UNL1        0.0872
     11 C         140.3374  140.7950  170.6404 C.ar    1  UNL1        0.0193
     12 C         141.2505  141.8830  171.1228 C.ar    1  UNL1        0.0015
     13 C         141.8088  142.8795  170.1505 C.ar    1  UNL1        0.0003
     14 C         141.4541  142.7880  168.6960 C.ar    1  UNL1        0.0063
     15 C         140.5411  141.7001  168.2136 C.ar    1  UNL1        0.0742
     16 C         140.1863  141.6086  166.7590 C.ar    1  UNL1        0.2669
     17 O         140.7447  142.6051  165.7868 O.2     1  UNL1       -0.2665
     18 N         139.2733  140.5207  166.2767 N.ar    1  UNL1       -0.2626
     19 O         137.8543  140.1549  160.4583 O.3     1  UNL1       -0.4792
     20 C         138.3094  141.2215  159.5069 C.3     1  UNL1        0.1660
     21 C         139.1116  142.3842  160.0116 C.3     1  UNL1        0.0449
     22 C         139.5668  143.4508  159.0602 C.3     1  UNL1        0.0197
     23 C         139.2196  143.3547  157.6040 C.3     1  UNL1        0.0577
     24 C         138.4175  142.1920  157.0993 C.3     1  UNL1        0.0197
     25 C         137.9623  141.1255  158.0508 C.3     1  UNL1        0.0449
     26 N         139.6748  144.4213  156.6525 N.3     1  UNL1       -0.2740
     27 C         140.2731  145.7436  157.0311 C.3     1  UNL1        0.0721
     28 C         140.5796  146.4924  155.7680 C.3     1  UNL1        0.0188
     29 C         140.1707  145.6328  154.6087 C.3     1  UNL1        0.0188
     30 C         139.6115  144.3527  155.1554 C.3     1  UNL1        0.0721
@<TRIPOS>BOND
     1     7     8    1
     2     8     9   ar
     3     9    10   ar
     4    10    11   ar
     5    11    12   ar
     6    12    13   ar
     7    13    14   ar
     8    14    15   ar
     9    15    16   ar
    10    16    17    2
    11    16    18   ar
    12    18     1    1
    13     1     2   ar
    14     2     3   ar
    15     3     4   ar
    16     4    19    1
    17    20    19    1
    18    20    21    1
    19    21    22    1
    20    22    23    1
    21    23    26    1
    22    26    27    1
    23    27    28    1
    24    28    29    1
    25    29    30    1
    26    23    24    1
    27    24    25    1
    28     4     5   ar
    29     5     6   ar
    30    18     8   ar
    31     6     1   ar
    32    15    10   ar
    33    25    20    1
    34    30    26    1
@<TRIPOS>MOLECULE
*****
 30 34 0 0 0
SMALL
GASTEIGER

@<TRIPOS>ATOM
      1 C         142.3997  138.7128  159.4773 C.ar    1  UNL1        0.0681
      2 C         142.8104  140.1417  159.6757 C.ar    1  UNL1        0.0208
      3 C         143.6285  140.5277  160.8722 C.ar    1  UNL1        0.0384
      4 C         144.0359  139.4847  161.8703 C.ar    1  UNL1        0.1385
      5 C         143.6251  138.0558  161.6719 C.ar    1  UNL1        0.0384
      6 C         142.8070  137.6698  160.4754 C.ar    1  UNL1        0.0208
      7 C         139.4040  138.7868  159.6213 C.3     1  UNL1        0.0723
      8 C         140.0837  138.3638  158.3527 C.ar    1  UNL1        0.1268
      9 N         139.2655  137.9779  157.1562 N.ar    1  UNL1       -0.2318
     10 C         139.9452  137.5550  155.8876 C.ar    1  UNL1        0.0872
     11 C         139.1271  137.1690  154.6911 C.ar    1  UNL1        0.0193
     12 C         139.8067  136.7461  153.4226 C.ar    1  UNL1        0.0015
     13 C         141.3046  136.7091  153.3506 C.ar    1  UNL1        0.0003
     14 C         142.1227  137.0951  154.5471 C.ar    1  UNL1        0.0063
     15 C         141.4430  137.5180  155.8156 C.ar    1  UNL1        0.0742
     16 C         142.2612  137.9039  157.0122 C.ar    1  UNL1        0.2669
     17 O         143.7590  137.8669  156.9402 O.2     1  UNL1       -0.2665
     18 N         141.5815  138.3268  158.2807 N.ar    1  UNL1       -0.2626
     19 O         144.8540  139.8707  163.0669 O.3     1  UNL1       -0.4792
     20 C         144.1865  140.4642  164.2720 C.3     1  UNL1        0.1660
     21 C         144.1574  141.9526  164.4564 C.3     1  UNL1        0.0449
     22 C         143.4899  142.5461  165.6615 C.3     1  UNL1        0.0197
     23 C         142.8516  141.6512  166.6822 C.3     1  UNL1        0.0577
     24 C         142.8808  140.1629  166.4978 C.3     1  UNL1        0.0197
     25 C         143.5483  139.5694  165.2927 C.3     1  UNL1        0.0449
     26 N         142.1842  142.2447  167.8873 N.3     1  UNL1       -0.2740
     27 C         142.8330  142.5102  169.2134 C.3     1  UNL1        0.0721
     28 C         141.8006  143.1065  170.1236 C.3     1  UNL1        0.0188
     29 C         140.5136  143.2095  169.3600 C.3     1  UNL1        0.0188
     30 C         140.7506  142.6769  167.9779 C.3     1  UNL1        0.0721
@<TRIPOS>BOND
     1     7     8    1
     2     8     9   ar
     3     9    10   ar
     4    10    11   ar
     5    11    12   ar
     6    12    13   ar
     7    13    14   ar
     8    14    15   ar
     9    15    16   ar
    10    16    17    2
    11    16    18   ar
    12    18     1    1
    13     1     2   ar
    14     2     3   ar
    15     3     4   ar
    16     4    19    1
    17    20    19    1
    18    20    21    1
    19    21    22    1
    20    22    23    1
    21    23    26    1
    22    26    27    1
    23    27    28    1
    24    28    29    1
    25    29    30    1
    26    23    24    1
    27    24    25    1
    28     4     5   ar
    29     5     6   ar
    30    18     8   ar
    31     6     1   ar
    32    15    10   ar
    33    25    20    1
    34    30    26    1
@<TRIPOS>MOLECULE
*****
 30 34 0 0 0
SMALL
GASTEIGER

@<TRIPOS>ATOM
      1 C         142.0342  139.1152  161.5578 C.ar    1  UNL1        0.0681
      2 C         142.6133  137.7905  161.1582 C.ar    1  UNL1        0.0208
      3 C         143.0479  137.5586  159.7415 C.ar    1  UNL1        0.0384
      4 C         142.9033  138.6514  158.7242 C.ar    1  UNL1        0.1385
      5 C         142.3242  139.9761  159.1238 C.ar    1  UNL1        0.0384
      6 C         141.8896  140.2081  160.5406 C.ar    1  UNL1        0.0208
      7 C         143.8621  140.5216  163.4763 C.3     1  UNL1        0.0723
      8 C         142.5136  140.0503  163.9339 C.ar    1  UNL1        0.1268
      9 N         142.0791  140.2822  165.3507 N.ar    1  UNL1       -0.2318
     10 C         140.7305  139.8109  165.8083 C.ar    1  UNL1        0.0872
     11 C         140.2960  140.0428  167.2251 C.ar    1  UNL1        0.0193
     12 C         138.9475  139.5715  167.6827 C.ar    1  UNL1        0.0015
     13 C         138.0335  138.8683  166.7234 C.ar    1  UNL1        0.0003
     14 C         138.4680  138.6364  165.3066 C.ar    1  UNL1        0.0063
     15 C         139.8165  139.1077  164.8491 C.ar    1  UNL1        0.0742
     16 C         140.2511  138.8758  163.4322 C.ar    1  UNL1        0.2669
     17 O         139.3371  138.1727  162.4730 O.2     1  UNL1       -0.2665
     18 N         141.5996  139.3471  162.9747 N.ar    1  UNL1       -0.2626
     19 O         143.3379  138.4195  157.3074 O.3     1  UNL1       -0.4792
     20 C         142.8538  137.2107  156.5627 C.3     1  UNL1        0.1660
     21 C         143.8397  136.2155  156.0265 C.3     1  UNL1        0.0449
     22 C         143.3556  135.0067  155.2818 C.3     1  UNL1        0.0197
     23 C         141.8856  134.7932  155.0734 C.3     1  UNL1        0.0577
     24 C         140.8997  135.7884  155.6096 C.3     1  UNL1        0.0197
     25 C         141.3838  136.9972  156.3542 C.3     1  UNL1        0.0449
     26 N         141.4014  133.5845  154.3287 N.3     1  UNL1       -0.2740
     27 C         141.0997  133.5154  152.8610 C.3     1  UNL1        0.0721
     28 C         140.6458  132.1208  152.5462 C.3     1  UNL1        0.0188
     29 C         140.6671  131.3279  153.8194 C.3     1  UNL1        0.0188
     30 C         141.1341  132.2325  154.9211 C.3     1  UNL1        0.0721
@<TRIPOS>BOND
     1     7     8    1
     2     8     9   ar
     3     9    10   ar
     4    10    11   ar
     5    11    12   ar
     6    12    13   ar
     7    13    14   ar
     8    14    15   ar
     9    15    16   ar
    10    16    17    2
    11    16    18   ar
    12    18     1    1
    13     1     2   ar
    14     2     3   ar
    15     3     4   ar
    16     4    19    1
    17    20    19    1
    18    20    21    1
    19    21    22    1
    20    22    23    1
    21    23    26    1
    22    26    27    1
    23    27    28    1
    24    28    29    1
    25    29    30    1
    26    23    24    1
    27    24    25    1
    28     4     5   ar
    29     5     6   ar
    30    18     8   ar
    31     6     1   ar
    32    15    10   ar
    33    25    20    1
    34    30    26    1
@<TRIPOS>MOLECULE
*****
 30 34 0 0 0
SMALL
GASTEIGER

@<TRIPOS>ATOM
      1 C         140.4964  139.3091  159.8837 C.ar    1  UNL1        0.0681
      2 C         139.6002  138.7109  158.8402 C.ar    1  UNL1        0.0208
      3 C         140.1936  138.0049  157.6572 C.ar    1  UNL1        0.0384
      4 C         141.6831  137.8971  157.5178 C.ar    1  UNL1        0.1385
      5 C         142.5794  138.4953  158.5613 C.ar    1  UNL1        0.0384
      6 C         141.9860  139.2013  159.7443 C.ar    1  UNL1        0.0208
      7 C         139.9316  137.7905  162.4086 C.3     1  UNL1        0.0723
      8 C         139.6206  139.2558  162.3292 C.ar    1  UNL1        0.1268
      9 N         139.0272  139.9618  163.5122 N.ar    1  UNL1       -0.2318
     10 C         138.7162  141.4271  163.4327 C.ar    1  UNL1        0.0872
     11 C         138.1228  142.1330  164.6157 C.ar    1  UNL1        0.0193
     12 C         137.8118  143.5982  164.5363 C.ar    1  UNL1        0.0015
     13 C         138.0942  144.3575  163.2738 C.ar    1  UNL1        0.0003
     14 C         138.6876  143.6516  162.0909 C.ar    1  UNL1        0.0063
     15 C         138.9986  142.1864  162.1703 C.ar    1  UNL1        0.0742
     16 C         139.5920  141.4803  160.9873 C.ar    1  UNL1        0.2669
     17 O         139.8744  142.2396  159.7249 O.2     1  UNL1       -0.2665
     18 N         139.9030  140.0151  161.0667 N.ar    1  UNL1       -0.2626
     19 O         142.2766  137.1911  156.3348 O.3     1  UNL1       -0.4792
     20 C         142.3243  135.6922  156.3023 C.3     1  UNL1        0.1660
     21 C         143.2671  134.9522  157.2043 C.3     1  UNL1        0.0449
     22 C         143.3149  133.4533  157.1719 C.3     1  UNL1        0.0197
     23 C         142.4199  132.6944  156.2374 C.3     1  UNL1        0.0577
     24 C         141.4772  133.4345  155.3354 C.3     1  UNL1        0.0197
     25 C         141.4294  134.9334  155.3679 C.3     1  UNL1        0.0449
     26 N         142.4677  131.1955  156.2049 N.3     1  UNL1       -0.2740
     27 C         141.7068  130.3093  155.2638 C.3     1  UNL1        0.0721
     28 C         142.0536  128.8858  155.5851 C.3     1  UNL1        0.0188
     29 C         143.0288  128.8922  156.7248 C.3     1  UNL1        0.0188
     30 C         143.2848  130.3197  157.1079 C.3     1  UNL1        0.0721
@<TRIPOS>BOND
     1     7     8    1
     2     8     9   ar
     3     9    10   ar
     4    10    11   ar
     5    11    12   ar
     6    12    13   ar
     7    13    14   ar
     8    14    15   ar
     9    15    16   ar
    10    16    17    2
    11    16    18   ar
    12    18     1    1
    13     1     2   ar
    14     2     3   ar
    15     3     4   ar
    16     4    19    1
    17    20    19    1
    18    20    21    1
    19    21    22    1
    20    22    23    1
    21    23    26    1
    22    26    27    1
    23    27    28    1
    24    28    29    1
    25    29    30    1
    26    23    24    1
    27    24    25    1
    28     4     5   ar
    29     5     6   ar
    30    18     8   ar
    31     6     1   ar
    32    15    10   ar
    33    25    20    1
    34    30    26    1
@<TRIPOS>MOLECULE
*****
 30 34 0 0 0
SMALL
GASTEIGER

@<TRIPOS>ATOM
      1 C         139.1882  140.5884  164.5690 C.ar    1  UNL1        0.0681
      2 C         140.2684  140.0649  163.6694 C.ar    1  UNL1        0.0208
      3 C         140.0617  140.0419  162.1840 C.ar    1  UNL1        0.0384
      4 C         138.7748  140.5425  161.5980 C.ar    1  UNL1        0.1385
      5 C         137.6946  141.0659  162.4976 C.ar    1  UNL1        0.0384
      6 C         137.9013  141.0889  163.9830 C.ar    1  UNL1        0.0208
      7 C         138.0722  138.3858  166.2729 C.3     1  UNL1        0.0723
      8 C         138.8369  139.5100  166.9065 C.ar    1  UNL1        0.1268
      9 N         139.0437  139.5329  168.3920 N.ar    1  UNL1       -0.2318
     10 C         139.8084  140.6572  169.0256 C.ar    1  UNL1        0.0872
     11 C         140.0151  140.6801  170.5111 C.ar    1  UNL1        0.0193
     12 C         140.7798  141.8042  171.1446 C.ar    1  UNL1        0.0015
     13 C         141.3378  142.9055  170.2926 C.ar    1  UNL1        0.0003
     14 C         141.1311  142.8826  168.8072 C.ar    1  UNL1        0.0063
     15 C         140.3664  141.7584  168.1736 C.ar    1  UNL1        0.0742
     16 C         140.1597  141.7355  166.6881 C.ar    1  UNL1        0.2669
     17 O         140.7176  142.8368  165.8361 O.2     1  UNL1       -0.2665
     18 N         139.3949  140.6113  166.0545 N.ar    1  UNL1       -0.2626
     19 O         138.5681  140.5195  160.1125 O.3     1  UNL1       -0.4792
     20 C         139.6598  140.0244  159.2109 C.3     1  UNL1        0.1660
     21 C         139.7234  138.5730  158.8371 C.3     1  UNL1        0.0449
     22 C         140.8151  138.0779  157.9355 C.3     1  UNL1        0.0197
     23 C         141.8434  139.0341  157.4077 C.3     1  UNL1        0.0577
     24 C         141.7798  140.4853  157.7815 C.3     1  UNL1        0.0197
     25 C         140.6880  140.9805  158.6831 C.3     1  UNL1        0.0449
     26 N         142.9352  138.5389  156.5061 N.3     1  UNL1       -0.2740
     27 C         143.8753  139.3932  155.7085 C.3     1  UNL1        0.0721
     28 C         144.7997  138.4848  154.9533 C.3     1  UNL1        0.0188
     29 C         144.4308  137.0690  155.2841 C.3     1  UNL1        0.0188
     30 C         143.2784  137.1024  156.2438 C.3     1  UNL1        0.0721
@<TRIPOS>BOND
     1     7     8    1
     2     8     9   ar
     3     9    10   ar
     4    10    11   ar
     5    11    12   ar
     6    12    13   ar
     7    13    14   ar
     8    14    15   ar
     9    15    16   ar
    10    16    17    2
    11    16    18   ar
    12    18     1    1
    13     1     2   ar
    14     2     3   ar
    15     3     4   ar
    16     4    19    1
    17    20    19    1
    18    20    21    1
    19    21    22    1
    20    22    23    1
    21    23    26    1
    22    26    27    1
    23    27    28    1
    24    28    29    1
    25    29    30    1
    26    23    24    1
    27    24    25    1
    28     4     5   ar
    29     5     6   ar
    30    18     8   ar
    31     6     1   ar
    32    15    10   ar
    33    25    20    1
    34    30    26    1
@<TRIPOS>MOLECULE
*****
 30 34 0 0 0
SMALL
GASTEIGER

@<TRIPOS>ATOM
      1 C         140.1136  138.9543  160.1571 C.ar    1  UNL1        0.0681
      2 C         139.2362  138.0145  160.9297 C.ar    1  UNL1        0.0208
      3 C         138.4762  138.5092  162.1245 C.ar    1  UNL1        0.0384
      4 C         138.5937  139.9437  162.5468 C.ar    1  UNL1        0.1385
      5 C         139.4712  140.8835  161.7742 C.ar    1  UNL1        0.0384
      6 C         140.2311  140.3888  160.5794 C.ar    1  UNL1        0.0208
      7 C         142.9262  137.9598  160.4747 C.3     1  UNL1        0.0723
      8 C         142.2799  137.9623  159.1210 C.ar    1  UNL1        0.1268
      9 N         143.0399  137.4675  157.9263 N.ar    1  UNL1       -0.2318
     10 C         142.3936  137.4699  156.5725 C.ar    1  UNL1        0.0872
     11 C         143.1536  136.9752  155.3778 C.ar    1  UNL1        0.0193
     12 C         142.5074  136.9776  154.0242 C.ar    1  UNL1        0.0015
     13 C         141.1011  137.4749  153.8653 C.ar    1  UNL1        0.0003
     14 C         140.3411  137.9696  155.0601 C.ar    1  UNL1        0.0063
     15 C         140.9874  137.9672  156.4137 C.ar    1  UNL1        0.0742
     16 C         140.2274  138.4619  157.6086 C.ar    1  UNL1        0.2669
     17 O         138.8211  138.9592  157.4498 O.2     1  UNL1       -0.2665
     18 N         140.8736  138.4595  158.9622 N.ar    1  UNL1       -0.2626
     19 O         137.8337  140.4385  163.7416 O.3     1  UNL1       -0.4792
     20 C         138.5264  140.5818  165.0644 C.3     1  UNL1        0.1660
     21 C         138.4367  139.4824  166.0810 C.3     1  UNL1        0.0449
     22 C         139.1294  139.6258  167.4037 C.3     1  UNL1        0.0197
     23 C         139.9118  140.8685  167.7099 C.3     1  UNL1        0.0577
     24 C         140.0014  141.9678  166.6933 C.3     1  UNL1        0.0197
     25 C         139.3087  141.8244  165.3705 C.3     1  UNL1        0.0449
     26 N         140.6045  141.0118  169.0326 N.3     1  UNL1       -0.2740
     27 C         141.4264  139.9596  169.7160 C.3     1  UNL1        0.0721
     28 C         141.9268  140.5300  171.0100 C.3     1  UNL1        0.0188
     29 C         141.4141  141.9348  171.1262 C.3     1  UNL1        0.0188
     30 C         140.5968  142.2327  169.9042 C.3     1  UNL1        0.0721
@<TRIPOS>BOND
     1     7     8    1
     2     8     9   ar
     3     9    10   ar
     4    10    11   ar
     5    11    12   ar
     6    12    13   ar
     7    13    14   ar
     8    14    15   ar
     9    15    16   ar
    10    16    17    2
    11    16    18   ar
    12    18     1    1
    13     1     2   ar
    14     2     3   ar
    15     3     4   ar
    16     4    19    1
    17    20    19    1
    18    20    21    1
    19    21    22    1
    20    22    23    1
    21    23    26    1
    22    26    27    1
    23    27    28    1
    24    28    29    1
    25    29    30    1
    26    23    24    1
    27    24    25    1
    28     4     5   ar
    29     5     6   ar
    30    18     8   ar
    31     6     1   ar
    32    15    10   ar
    33    25    20    1
    34    30    26    1
@<TRIPOS>MOLECULE
*****
 30 34 0 0 0
SMALL
GASTEIGER

@<TRIPOS>ATOM
      1 C         138.5708  140.8446  160.0999 C.ar    1  UNL1        0.0681
      2 C         137.8454  141.2497  161.3488 C.ar    1  UNL1        0.0208
      3 C         137.8813  140.3629  162.5581 C.ar    1  UNL1        0.0384
      4 C         138.6425  139.0711  162.5184 C.ar    1  UNL1        0.1385
      5 C         139.3678  138.6660  161.2695 C.ar    1  UNL1        0.0384
      6 C         139.3319  139.5527  160.0602 C.ar    1  UNL1        0.0208
      7 C         140.4731  143.1534  159.8761 C.3     1  UNL1        0.0723
      8 C         139.4861  142.8859  158.7787 C.ar    1  UNL1        0.1268
      9 N         139.4502  143.7727  157.5695 N.ar    1  UNL1       -0.2318
     10 C         138.4631  143.5051  156.4721 C.ar    1  UNL1        0.0872
     11 C         138.4273  144.3919  155.2629 C.ar    1  UNL1        0.0193
     12 C         137.4402  144.1243  154.1657 C.ar    1  UNL1        0.0015
     13 C         136.4890  142.9699  154.2776 C.ar    1  UNL1        0.0003
     14 C         136.5249  142.0831  155.4868 C.ar    1  UNL1        0.0063
     15 C         137.5119  142.3507  156.5841 C.ar    1  UNL1        0.0742
     16 C         137.5478  141.4638  157.7933 C.ar    1  UNL1        0.2669
     17 O         136.5966  140.3094  157.9053 O.2     1  UNL1       -0.2665
     18 N         138.5349  141.7314  158.8906 N.ar    1  UNL1       -0.2626
     19 O         138.6784  138.1842  163.7277 O.3     1  UNL1       -0.4792
     20 C         139.1599  138.7259  165.0409 C.3     1  UNL1        0.1660
     21 C         138.1981  138.8989  166.1789 C.3     1  UNL1        0.0449
     22 C         138.6797  139.4406  167.4922 C.3     1  UNL1        0.0197
     23 C         140.1231  139.8093  167.6675 C.3     1  UNL1        0.0577
     24 C         141.0849  139.6363  166.5295 C.3     1  UNL1        0.0197
     25 C         140.6033  139.0946  165.2162 C.3     1  UNL1        0.0449
     26 N         140.6047  140.3510  168.9807 N.3     1  UNL1       -0.2740
     27 C         141.8961  140.0008  169.6587 C.3     1  UNL1        0.0721
     28 C         141.9690  140.7714  170.9436 C.3     1  UNL1        0.0188
     29 C         140.7226  141.5978  171.0598 C.3     1  UNL1        0.0188
     30 C         139.8793  141.3380  169.8467 C.3     1  UNL1        0.0721
@<TRIPOS>BOND
     1     7     8    1
     2     8     9   ar
     3     9    10   ar
     4    10    11   ar
     5    11    12   ar
     6    12    13   ar
     7    13    14   ar
     8    14    15   ar
     9    15    16   ar
    10    16    17    2
    11    16    18   ar
    12    18     1    1
    13     1     2   ar
    14     2     3   ar
    15     3     4   ar
    16     4    19    1
    17    20    19    1
    18    20    21    1
    19    21    22    1
    20    22    23    1
    21    23    26    1
    22    26    27    1
    23    27    28    1
    24    28    29    1
    25    29    30    1
    26    23    24    1
    27    24    25    1
    28     4     5   ar
    29     5     6   ar
    30    18     8   ar
    31     6     1   ar
    32    15    10   ar
    33    25    20    1
    34    30    26    1
