@<TRIPOS>MOLECULE
*****
 30 32 0 0 0
SMALL
GASTEIGER

@<TRIPOS>ATOM
      1 N         140.1609  144.5220  163.9663 N.ar    1  UNL1       -0.2936
      2 C         141.3545  143.8453  164.5725 C.ar    1  UNL1        0.0814
      3 C         142.5813  143.6043  163.7437 C.ar    1  UNL1        0.0558
      4 C         142.6145  144.0399  162.3087 C.ar    1  UNL1        0.1453
      5 C         141.4210  144.7166  161.7026 C.ar    1  UNL1        0.0976
      6 C         140.1941  144.9576  162.5313 C.ar    1  UNL1        0.2641
      7 O         139.0006  145.6343  161.9252 O.2     1  UNL1       -0.2669
      8 C         138.9341  144.7630  164.7950 C.3     1  UNL1        0.1154
      9 C         137.6946  143.9537  164.5530 C.3     1  UNL1        0.0703
     10 C         138.0058  139.8532  162.7259 C.ar    1  UNL1        0.0128
     11 C         138.2521  140.0410  164.1935 C.ar    1  UNL1       -0.0002
     12 C         138.1484  141.4078  164.8026 C.ar    1  UNL1        0.0145
     13 C         137.7983  142.5869  163.9440 C.ar    1  UNL1        0.0609
     14 N         137.5521  142.3991  162.4764 N.ar    1  UNL1       -0.2484
     15 C         137.6558  141.0322  161.8673 C.ar    1  UNL1        0.0955
     16 C         138.1096  138.4863  162.1168 C.3     1  UNL1        0.0972
     17 N         138.8705  137.4052  162.8255 N.3     1  UNL1       -0.2937
     18 H         138.5070  137.3650  163.7777 H       1  UNL1        0.1236
     19 C         140.3642  137.4880  162.9354 C.3     1  UNL1        0.0688
     20 C         141.5936  138.3292  165.0640 C.3     1  UNL1        0.0015
     21 C         141.0368  137.2023  164.2454 C.3     1  UNL1        0.0171
     22 O         143.8413  143.7989  161.4800 O.3     1  UNL1       -0.4704
     23 C         144.7506  142.6503  161.8025 C.3     1  UNL1        0.2320
     24 C         144.3377  141.2487  161.4632 C.ar    1  UNL1        0.0213
     25 C         144.3936  140.1760  162.5101 C.ar    1  UNL1        0.0016
     26 C         143.9807  138.7745  162.1708 C.ar    1  UNL1        0.0294
     27 C         143.5119  138.4456  160.7844 C.ar    1  UNL1        0.1401
     28 F         143.0990  137.0440  160.4451 F       1  UNL1       -0.2042
     29 C         143.4559  139.5183  159.7374 C.ar    1  UNL1        0.0294
     30 C         143.8688  140.9198  160.0767 C.ar    1  UNL1        0.0016
@<TRIPOS>BOND
     1    20    21    1
     2    21    19    1
     3    19    17    1
     4    17    16    1
     5    16    10    1
     6    10    11   ar
     7    11    12   ar
     8    12    13   ar
     9    13     9    1
    10     9     8    1
    11     8     1    1
    12     1     2   ar
    13     2     3   ar
    14     3     4   ar
    15     4    22    1
    16    22    23    1
    17    23    24    1
    18    24    25   ar
    19    25    26   ar
    20    26    27   ar
    21    27    28    1
    22    27    29   ar
    23    29    30   ar
    24     4     5   ar
    25     5     6   ar
    26     6     7    2
    27    13    14   ar
    28    14    15   ar
    29    15    10   ar
    30     6     1   ar
    31    30    24   ar
    32    17    18    1
@<TRIPOS>MOLECULE
*****
 30 32 0 0 0
SMALL
GASTEIGER

@<TRIPOS>ATOM
      1 N         138.2155  141.3122  164.2097 N.ar    1  UNL1       -0.2936
      2 C         138.5060  142.5590  164.9914 C.ar    1  UNL1        0.0814
      3 C         138.5926  143.8816  164.2889 C.ar    1  UNL1        0.0558
      4 C         138.3886  143.9572  162.8047 C.ar    1  UNL1        0.1453
      5 C         138.0981  142.7104  162.0231 C.ar    1  UNL1        0.0976
      6 C         138.0115  141.3879  162.7256 C.ar    1  UNL1        0.2641
      7 O         137.7210  140.1411  161.9439 O.2     1  UNL1       -0.2669
      8 C         138.1289  139.9897  164.9121 C.3     1  UNL1        0.1154
      9 C         139.3825  139.2635  165.3009 C.3     1  UNL1        0.0703
     10 C         141.3495  140.1282  169.2548 C.ar    1  UNL1        0.0128
     11 C         139.8537  140.1389  169.1430 C.ar    1  UNL1       -0.0002
     12 C         139.1981  139.8507  167.8250 C.ar    1  UNL1        0.0145
     13 C         140.0381  139.5517  166.6189 C.ar    1  UNL1        0.0609
     14 N         141.5339  139.5409  166.7307 N.ar    1  UNL1       -0.2484
     15 C         142.1896  139.8292  168.0487 C.ar    1  UNL1        0.0955
     16 C         142.0052  140.4164  170.5727 C.3     1  UNL1        0.0972
     17 N         142.2320  141.8353  171.0032 N.3     1  UNL1       -0.2937
     18 H         141.5737  142.0223  171.7596 H       1  UNL1        0.1236
     19 C         142.0829  142.9523  170.0133 C.3     1  UNL1        0.0688
     20 C         139.6001  143.2556  170.7161 C.3     1  UNL1        0.0015
     21 C         140.7471  143.6053  169.8149 C.3     1  UNL1        0.0171
     22 O         138.4752  145.2797  162.1022 O.3     1  UNL1       -0.4704
     23 C         139.7681  146.0402  162.0918 C.3     1  UNL1        0.2320
     24 C         141.0655  145.3167  162.3003 C.ar    1  UNL1        0.0213
     25 C         141.8346  145.5078  163.5738 C.ar    1  UNL1        0.0016
     26 C         143.1319  144.7842  163.7823 C.ar    1  UNL1        0.0294
     27 C         143.6601  143.8697  162.7172 C.ar    1  UNL1        0.1401
     28 F         144.9575  143.1462  162.9256 F       1  UNL1       -0.2042
     29 C         142.8911  143.6786  161.4435 C.ar    1  UNL1        0.0294
     30 C         141.5937  144.4021  161.2351 C.ar    1  UNL1        0.0016
@<TRIPOS>BOND
     1    20    21    1
     2    21    19    1
     3    19    17    1
     4    17    16    1
     5    16    10    1
     6    10    11   ar
     7    11    12   ar
     8    12    13   ar
     9    13     9    1
    10     9     8    1
    11     8     1    1
    12     1     2   ar
    13     2     3   ar
    14     3     4   ar
    15     4    22    1
    16    22    23    1
    17    23    24    1
    18    24    25   ar
    19    25    26   ar
    20    26    27   ar
    21    27    28    1
    22    27    29   ar
    23    29    30   ar
    24     4     5   ar
    25     5     6   ar
    26     6     7    2
    27    13    14   ar
    28    14    15   ar
    29    15    10   ar
    30     6     1   ar
    31    30    24   ar
    32    17    18    1
@<TRIPOS>MOLECULE
*****
 30 32 0 0 0
SMALL
GASTEIGER

@<TRIPOS>ATOM
      1 N         138.3739  143.3699  162.7251 N.ar    1  UNL1       -0.2936
      2 C         137.6645  142.3242  163.5335 C.ar    1  UNL1        0.0814
      3 C         137.4038  140.9696  162.9443 C.ar    1  UNL1        0.0558
      4 C         137.8524  140.6608  161.5466 C.ar    1  UNL1        0.1453
      5 C         138.5617  141.7064  160.7382 C.ar    1  UNL1        0.0976
      6 C         138.8224  143.0610  161.3275 C.ar    1  UNL1        0.2641
      7 O         139.5317  144.1066  160.5191 O.2     1  UNL1       -0.2669
      8 C         138.6346  144.7244  163.3144 C.3     1  UNL1        0.1154
      9 C         139.6615  144.8869  164.3956 C.3     1  UNL1        0.0703
     10 C         143.7397  143.0452  163.9206 C.ar    1  UNL1        0.0128
     11 C         142.7183  142.3887  164.8013 C.ar    1  UNL1       -0.0002
     12 C         141.3589  143.0026  164.9596 C.ar    1  UNL1        0.0145
     13 C         141.0209  144.2730  164.2373 C.ar    1  UNL1        0.0609
     14 N         142.0423  144.9295  163.3566 N.ar    1  UNL1       -0.2484
     15 C         143.4018  144.3156  163.1983 C.ar    1  UNL1        0.0955
     16 C         145.0992  142.4313  163.7623 C.3     1  UNL1        0.0972
     17 N         145.4090  141.5960  162.5556 N.3     1  UNL1       -0.2937
     18 H         145.3990  142.2243  161.7521 H       1  UNL1        0.1236
     19 C         144.5322  140.4306  162.2048 C.3     1  UNL1        0.0688
     20 C         142.3197  141.2702  161.1325 C.3     1  UNL1        0.0015
     21 C         143.6105  140.5140  161.0243 C.3     1  UNL1        0.0171
     22 O         137.5916  139.3062  160.9574 O.3     1  UNL1       -0.4704
     23 C         137.8298  138.0730  161.7775 C.3     1  UNL1        0.2320
     24 C         139.0484  137.9742  162.6466 C.ar    1  UNL1        0.0213
     25 C         140.4146  137.9922  162.0276 C.ar    1  UNL1        0.0016
     26 C         141.6331  137.8933  162.8967 C.ar    1  UNL1        0.0294
     27 C         141.4855  137.7764  164.3848 C.ar    1  UNL1        0.1401
     28 F         142.7041  137.6775  165.2539 F       1  UNL1       -0.2042
     29 C         140.1193  137.7584  165.0039 C.ar    1  UNL1        0.0294
     30 C         138.9007  137.8572  164.1348 C.ar    1  UNL1        0.0016
@<TRIPOS>BOND
     1    20    21    1
     2    21    19    1
     3    19    17    1
     4    17    16    1
     5    16    10    1
     6    10    11   ar
     7    11    12   ar
     8    12    13   ar
     9    13     9    1
    10     9     8    1
    11     8     1    1
    12     1     2   ar
    13     2     3   ar
    14     3     4   ar
    15     4    22    1
    16    22    23    1
    17    23    24    1
    18    24    25   ar
    19    25    26   ar
    20    26    27   ar
    21    27    28    1
    22    27    29   ar
    23    29    30   ar
    24     4     5   ar
    25     5     6   ar
    26     6     7    2
    27    13    14   ar
    28    14    15   ar
    29    15    10   ar
    30     6     1   ar
    31    30    24   ar
    32    17    18    1
@<TRIPOS>MOLECULE
*****
 30 32 0 0 0
SMALL
GASTEIGER

@<TRIPOS>ATOM
      1 N         138.7685  138.8453  164.3436 N.ar    1  UNL1       -0.2936
      2 C         138.3650  138.8857  162.8994 C.ar    1  UNL1        0.0814
      3 C         137.8493  140.1604  162.3002 C.ar    1  UNL1        0.0558
      4 C         137.7371  141.3948  163.1451 C.ar    1  UNL1        0.1453
      5 C         138.1407  141.3544  164.5892 C.ar    1  UNL1        0.0976
      6 C         138.6564  140.0796  165.1885 C.ar    1  UNL1        0.2641
      7 O         139.0599  140.0392  166.6326 O.2     1  UNL1       -0.2669
      8 C         139.2842  137.5706  164.9429 C.3     1  UNL1        0.1154
      9 C         140.5611  136.9671  164.4376 C.3     1  UNL1        0.0703
     10 C         144.3039  139.4577  164.2416 C.ar    1  UNL1        0.0128
     11 C         143.7733  139.0044  165.5694 C.ar    1  UNL1       -0.0002
     12 C         142.5257  138.1742  165.6347 C.ar    1  UNL1        0.0145
     13 C         141.8087  137.7973  164.3723 C.ar    1  UNL1        0.0609
     14 N         142.3393  138.2505  163.0445 N.ar    1  UNL1       -0.2484
     15 C         143.5869  139.0807  162.9792 C.ar    1  UNL1        0.0955
     16 C         145.5515  140.2878  164.1763 C.3     1  UNL1        0.0972
     17 N         145.4565  141.7682  163.9543 N.3     1  UNL1       -0.2937
     18 H         146.2225  142.1940  164.4762 H       1  UNL1        0.1236
     19 C         144.2081  142.5057  164.3387 C.3     1  UNL1        0.0688
     20 C         142.6246  142.3801  166.3946 C.3     1  UNL1        0.0015
     21 C         143.9268  142.8029  165.7818 C.3     1  UNL1        0.0171
     22 O         137.2214  142.6695  162.5458 O.3     1  UNL1       -0.4704
     23 C         137.7542  143.9897  163.0184 C.3     1  UNL1        0.2320
     24 C         139.2211  144.2862  162.9172 C.ar    1  UNL1        0.0213
     25 C         139.9214  144.1645  161.5963 C.ar    1  UNL1        0.0016
     26 C         141.3883  144.4609  161.4950 C.ar    1  UNL1        0.0294
     27 C         142.1550  144.8790  162.7146 C.ar    1  UNL1        0.1401
     28 F         143.6219  145.1755  162.6134 F       1  UNL1       -0.2042
     29 C         141.4546  145.0008  164.0356 C.ar    1  UNL1        0.0294
     30 C         139.9877  144.7043  164.1368 C.ar    1  UNL1        0.0016
@<TRIPOS>BOND
     1    20    21    1
     2    21    19    1
     3    19    17    1
     4    17    16    1
     5    16    10    1
     6    10    11   ar
     7    11    12   ar
     8    12    13   ar
     9    13     9    1
    10     9     8    1
    11     8     1    1
    12     1     2   ar
    13     2     3   ar
    14     3     4   ar
    15     4    22    1
    16    22    23    1
    17    23    24    1
    18    24    25   ar
    19    25    26   ar
    20    26    27   ar
    21    27    28    1
    22    27    29   ar
    23    29    30   ar
    24     4     5   ar
    25     5     6   ar
    26     6     7    2
    27    13    14   ar
    28    14    15   ar
    29    15    10   ar
    30     6     1   ar
    31    30    24   ar
    32    17    18    1
@<TRIPOS>MOLECULE
*****
 30 32 0 0 0
SMALL
GASTEIGER

@<TRIPOS>ATOM
      1 N         140.2658  138.5154  161.6452 N.ar    1  UNL1       -0.2936
      2 C         141.2947  139.2046  160.7987 C.ar    1  UNL1        0.0814
      3 C         142.7185  139.2830  161.2640 C.ar    1  UNL1        0.0558
      4 C         143.1135  138.6722  162.5759 C.ar    1  UNL1        0.1453
      5 C         142.0847  137.9830  163.4223 C.ar    1  UNL1        0.0976
      6 C         140.6609  137.9046  162.9570 C.ar    1  UNL1        0.2641
      7 O         139.6321  137.2154  163.8034 O.2     1  UNL1       -0.2669
      8 C         138.8420  138.4369  161.1798 C.3     1  UNL1        0.1154
      9 C         137.7350  138.9227  162.0677 C.3     1  UNL1        0.0703
     10 C         137.9683  143.0173  163.9197 C.ar    1  UNL1        0.0128
     11 C         138.1915  141.7982  164.7646 C.ar    1  UNL1       -0.0002
     12 C         138.1137  140.4333  164.1473 C.ar    1  UNL1        0.0145
     13 C         137.8127  140.2876  162.6851 C.ar    1  UNL1        0.0609
     14 N         137.5896  141.5067  161.8402 N.ar    1  UNL1       -0.2484
     15 C         137.6673  142.8715  162.4575 C.ar    1  UNL1        0.0955
     16 C         138.0461  144.3822  164.5370 C.3     1  UNL1        0.0972
     17 N         139.3569  145.1096  164.5859 N.3     1  UNL1       -0.2937
     18 H         139.1654  146.0789  164.3326 H       1  UNL1        0.1236
     19 C         140.4994  144.6551  163.7267 C.3     1  UNL1        0.0688
     20 C         139.7263  146.2565  161.8325 C.3     1  UNL1        0.0015
     21 C         140.7330  145.2942  162.3899 C.3     1  UNL1        0.0171
     22 O         144.5374  138.7506  163.0412 O.3     1  UNL1       -0.4704
     23 C         144.9236  139.7271  164.1124 C.3     1  UNL1        0.2320
     24 C         144.6648  141.1921  163.9205 C.ar    1  UNL1        0.0213
     25 C         144.0698  142.0009  165.0348 C.ar    1  UNL1        0.0016
     26 C         143.8110  143.4659  164.8429 C.ar    1  UNL1        0.0294
     27 C         144.1471  144.1221  163.5366 C.ar    1  UNL1        0.1401
     28 F         143.8883  145.5871  163.3447 F       1  UNL1       -0.2042
     29 C         144.7421  143.3133  162.4222 C.ar    1  UNL1        0.0294
     30 C         145.0009  141.8483  162.6141 C.ar    1  UNL1        0.0016
@<TRIPOS>BOND
     1    20    21    1
     2    21    19    1
     3    19    17    1
     4    17    16    1
     5    16    10    1
     6    10    11   ar
     7    11    12   ar
     8    12    13   ar
     9    13     9    1
    10     9     8    1
    11     8     1    1
    12     1     2   ar
    13     2     3   ar
    14     3     4   ar
    15     4    22    1
    16    22    23    1
    17    23    24    1
    18    24    25   ar
    19    25    26   ar
    20    26    27   ar
    21    27    28    1
    22    27    29   ar
    23    29    30   ar
    24     4     5   ar
    25     5     6   ar
    26     6     7    2
    27    13    14   ar
    28    14    15   ar
    29    15    10   ar
    30     6     1   ar
    31    30    24   ar
    32    17    18    1
@<TRIPOS>MOLECULE
*****
 30 32 0 0 0
SMALL
GASTEIGER

@<TRIPOS>ATOM
      1 N         144.0008  140.6752  162.7259 N.ar    1  UNL1       -0.2936
      2 C         143.1207  140.9602  161.5451 C.ar    1  UNL1        0.0814
      3 C         142.0616  139.9765  161.1443 C.ar    1  UNL1        0.0558
      4 C         141.8827  138.7077  161.9243 C.ar    1  UNL1        0.1453
      5 C         142.7628  138.4227  163.1050 C.ar    1  UNL1        0.0976
      6 C         143.8219  139.4065  163.5058 C.ar    1  UNL1        0.2641
      7 O         144.7019  139.1215  164.6866 O.2     1  UNL1       -0.2669
      8 C         145.0599  141.6589  163.1268 C.3     1  UNL1        0.1154
      9 C         144.7722  142.6802  164.1870 C.3     1  UNL1        0.0703
     10 C         140.5699  144.1707  164.7943 C.ar    1  UNL1        0.0128
     11 C         141.0307  142.9230  165.4878 C.ar    1  UNL1       -0.0002
     12 C         142.4315  142.4262  165.2853 C.ar    1  UNL1        0.0145
     13 C         143.3714  143.1770  164.3895 C.ar    1  UNL1        0.0609
     14 N         142.9106  144.4247  163.6960 N.ar    1  UNL1       -0.2484
     15 C         141.5099  144.9215  163.8985 C.ar    1  UNL1        0.0955
     16 C         139.1691  144.6675  164.9968 C.3     1  UNL1        0.0972
     17 N         138.0138  143.9157  164.4052 N.3     1  UNL1       -0.2937
     18 H         138.1766  142.9272  164.5971 H       1  UNL1        0.1236
     19 C         137.7168  144.0290  162.9393 C.3     1  UNL1        0.0688
     20 C         139.4651  142.6805  161.5699 C.3     1  UNL1        0.0015
     21 C         138.0492  142.8939  162.0168 C.3     1  UNL1        0.0171
     22 O         140.8237  137.7240  161.5234 O.3     1  UNL1       -0.4704
     23 C         139.3877  137.9852  161.8696 C.3     1  UNL1        0.2320
     24 C         139.0008  138.2863  163.2872 C.ar    1  UNL1        0.0213
     25 C         139.0088  137.1938  164.3150 C.ar    1  UNL1        0.0016
     26 C         138.6219  137.4948  165.7326 C.ar    1  UNL1        0.0294
     27 C         138.2270  138.8884  166.1225 C.ar    1  UNL1        0.1401
     28 F         137.8401  139.1894  167.5401 F       1  UNL1       -0.2042
     29 C         138.2189  139.9810  165.0947 C.ar    1  UNL1        0.0294
     30 C         138.6058  139.6799  163.6771 C.ar    1  UNL1        0.0016
@<TRIPOS>BOND
     1    20    21    1
     2    21    19    1
     3    19    17    1
     4    17    16    1
     5    16    10    1
     6    10    11   ar
     7    11    12   ar
     8    12    13   ar
     9    13     9    1
    10     9     8    1
    11     8     1    1
    12     1     2   ar
    13     2     3   ar
    14     3     4   ar
    15     4    22    1
    16    22    23    1
    17    23    24    1
    18    24    25   ar
    19    25    26   ar
    20    26    27   ar
    21    27    28    1
    22    27    29   ar
    23    29    30   ar
    24     4     5   ar
    25     5     6   ar
    26     6     7    2
    27    13    14   ar
    28    14    15   ar
    29    15    10   ar
    30     6     1   ar
    31    30    24   ar
    32    17    18    1
@<TRIPOS>MOLECULE
*****
 30 32 0 0 0
SMALL
GASTEIGER

@<TRIPOS>ATOM
      1 N         140.5170  144.3863  164.4378 N.ar    1  UNL1       -0.2936
      2 C         141.3664  145.1122  163.4369 C.ar    1  UNL1        0.0814
      3 C         142.8019  144.7206  163.2472 C.ar    1  UNL1        0.0558
      4 C         143.3880  143.6032  164.0583 C.ar    1  UNL1        0.1453
      5 C         142.5386  142.8773  165.0591 C.ar    1  UNL1        0.0976
      6 C         141.1031  143.2689  165.2488 C.ar    1  UNL1        0.2641
      7 O         140.2537  142.5430  166.2496 O.2     1  UNL1       -0.2669
      8 C         139.0815  144.7778  164.6275 C.3     1  UNL1        0.1154
      9 C         138.0538  144.3757  163.6115 C.3     1  UNL1        0.0703
     10 C         137.8864  140.1262  162.1407 C.ar    1  UNL1        0.0128
     11 C         137.7254  140.4207  163.6026 C.ar    1  UNL1       -0.0002
     12 C         137.7812  141.8373  164.0929 C.ar    1  UNL1        0.0145
     13 C         137.9980  142.9592  163.1212 C.ar    1  UNL1        0.0609
     14 N         138.1591  142.6647  161.6593 N.ar    1  UNL1       -0.2484
     15 C         138.1033  141.2481  161.1691 C.ar    1  UNL1        0.0955
     16 C         137.8307  138.7097  161.6504 C.3     1  UNL1        0.0972
     17 N         138.4476  137.6100  162.4628 N.3     1  UNL1       -0.2937
     18 H         137.9275  137.5639  163.3390 H       1  UNL1        0.1236
     19 C         139.9019  137.6706  162.8252 C.3     1  UNL1        0.0688
     20 C         140.9281  138.8561  164.8968 C.3     1  UNL1        0.0015
     21 C         140.3177  137.6397  164.2661 C.3     1  UNL1        0.0171
     22 O         144.8235  143.2116  163.8686 O.3     1  UNL1       -0.4704
     23 C         145.2267  141.7699  163.9646 C.3     1  UNL1        0.2320
     24 C         144.6784  140.7713  162.9889 C.ar    1  UNL1        0.0213
     25 C         144.4616  141.1626  161.5572 C.ar    1  UNL1        0.0016
     26 C         143.9133  140.1639  160.5815 C.ar    1  UNL1        0.0294
     27 C         143.5818  138.7739  161.0375 C.ar    1  UNL1        0.1401
     28 F         143.0335  137.7752  160.0618 F       1  UNL1       -0.2042
     29 C         143.7985  138.3825  162.4693 C.ar    1  UNL1        0.0294
     30 C         144.3468  139.3812  163.4450 C.ar    1  UNL1        0.0016
@<TRIPOS>BOND
     1    20    21    1
     2    21    19    1
     3    19    17    1
     4    17    16    1
     5    16    10    1
     6    10    11   ar
     7    11    12   ar
     8    12    13   ar
     9    13     9    1
    10     9     8    1
    11     8     1    1
    12     1     2   ar
    13     2     3   ar
    14     3     4   ar
    15     4    22    1
    16    22    23    1
    17    23    24    1
    18    24    25   ar
    19    25    26   ar
    20    26    27   ar
    21    27    28    1
    22    27    29   ar
    23    29    30   ar
    24     4     5   ar
    25     5     6   ar
    26     6     7    2
    27    13    14   ar
    28    14    15   ar
    29    15    10   ar
    30     6     1   ar
    31    30    24   ar
    32    17    18    1
@<TRIPOS>MOLECULE
*****
 30 32 0 0 0
SMALL
GASTEIGER

@<TRIPOS>ATOM
      1 N         140.0813  144.6263  162.6497 N.ar    1  UNL1       -0.2936
      2 C         140.8606  144.9077  163.9001 C.ar    1  UNL1        0.0814
      3 C         142.3272  144.5977  163.9555 C.ar    1  UNL1        0.0558
      4 C         143.0145  144.0064  162.7605 C.ar    1  UNL1        0.1453
      5 C         142.2352  143.7250  161.5101 C.ar    1  UNL1        0.0976
      6 C         140.7686  144.0350  161.4547 C.ar    1  UNL1        0.2641
      7 O         139.9893  143.7536  160.2043 O.2     1  UNL1       -0.2669
      8 C         138.6147  144.9362  162.5942 C.3     1  UNL1        0.1154
      9 C         137.6231  143.9797  163.1873 C.3     1  UNL1        0.0703
     10 C         138.1118  139.5515  162.5534 C.ar    1  UNL1        0.0128
     11 C         138.2524  140.1322  163.9292 C.ar    1  UNL1       -0.0002
     12 C         138.0895  141.6083  164.1405 C.ar    1  UNL1        0.0145
     13 C         137.7860  142.5036  162.9760 C.ar    1  UNL1        0.0609
     14 N         137.6455  141.9229  161.6002 N.ar    1  UNL1       -0.2484
     15 C         137.8084  140.4468  161.3889 C.ar    1  UNL1        0.0955
     16 C         138.2747  138.0754  162.3421 C.3     1  UNL1        0.0972
     17 N         139.6419  137.4593  162.3759 N.3     1  UNL1       -0.2937
     18 H         139.9128  137.3974  163.3573 H       1  UNL1        0.1236
     19 C         140.7795  138.1180  161.6534 C.3     1  UNL1        0.0688
     20 C         142.5449  140.0210  161.5433 C.3     1  UNL1        0.0015
     21 C         141.5836  139.1851  162.3352 C.3     1  UNL1        0.0171
     22 O         144.4811  143.6965  162.8159 O.3     1  UNL1       -0.4704
     23 C         145.0684  143.0655  164.0435 C.3     1  UNL1        0.2320
     24 C         144.5882  141.7189  164.4975 C.ar    1  UNL1        0.0213
     25 C         145.2354  140.4739  163.9673 C.ar    1  UNL1        0.0016
     26 C         144.7552  139.1273  164.4214 C.ar    1  UNL1        0.0294
     27 C         143.6279  139.0257  165.4056 C.ar    1  UNL1        0.1401
     28 F         143.1477  137.6791  165.8596 F       1  UNL1       -0.2042
     29 C         142.9806  140.2708  165.9358 C.ar    1  UNL1        0.0294
     30 C         143.4608  141.6173  165.4818 C.ar    1  UNL1        0.0016
@<TRIPOS>BOND
     1    20    21    1
     2    21    19    1
     3    19    17    1
     4    17    16    1
     5    16    10    1
     6    10    11   ar
     7    11    12   ar
     8    12    13   ar
     9    13     9    1
    10     9     8    1
    11     8     1    1
    12     1     2   ar
    13     2     3   ar
    14     3     4   ar
    15     4    22    1
    16    22    23    1
    17    23    24    1
    18    24    25   ar
    19    25    26   ar
    20    26    27   ar
    21    27    28    1
    22    27    29   ar
    23    29    30   ar
    24     4     5   ar
    25     5     6   ar
    26     6     7    2
    27    13    14   ar
    28    14    15   ar
    29    15    10   ar
    30     6     1   ar
    31    30    24   ar
    32    17    18    1
@<TRIPOS>MOLECULE
*****
 30 32 0 0 0
SMALL
GASTEIGER

@<TRIPOS>ATOM
      1 N         144.4880  141.1844  164.5509 N.ar    1  UNL1       -0.2936
      2 C         144.1405  139.7293  164.6603 C.ar    1  UNL1        0.0814
      3 C         143.1280  139.2738  165.6689 C.ar    1  UNL1        0.0558
      4 C         142.4629  140.2734  166.5681 C.ar    1  UNL1        0.1453
      5 C         142.8105  141.7285  166.4587 C.ar    1  UNL1        0.0976
      6 C         143.8230  142.1840  165.4501 C.ar    1  UNL1        0.2641
      7 O         144.1705  143.6390  165.3407 O.2     1  UNL1       -0.2669
      8 C         145.5006  141.6399  163.5423 C.3     1  UNL1        0.1154
      9 C         145.0722  141.9574  162.1403 C.3     1  UNL1        0.0703
     10 C         140.8883  143.4081  161.3399 C.ar    1  UNL1        0.0128
     11 C         141.1701  141.9369  161.4170 C.ar    1  UNL1       -0.0002
     12 C         142.5647  141.4533  161.6838 C.ar    1  UNL1        0.0145
     13 C         143.6776  142.4410  161.8735 C.ar    1  UNL1        0.0609
     14 N         143.3958  143.9122  161.7964 N.ar    1  UNL1       -0.2484
     15 C         142.0012  144.3958  161.5295 C.ar    1  UNL1        0.0955
     16 C         139.4937  143.8917  161.0730 C.3     1  UNL1        0.0972
     17 N         138.8414  144.8578  162.0170 N.3     1  UNL1       -0.2937
     18 H         139.5335  145.5770  162.2270 H       1  UNL1        0.1236
     19 C         138.3057  144.3753  163.3324 C.3     1  UNL1        0.0688
     20 C         140.3501  144.1305  164.9168 C.3     1  UNL1        0.0015
     21 C         139.0119  144.7329  164.6065 C.3     1  UNL1        0.0171
     22 O         141.4504  139.8179  167.5768 O.3     1  UNL1       -0.4704
     23 C         139.9869  140.0106  167.3100 C.3     1  UNL1        0.2320
     24 C         139.4328  139.7456  165.9415 C.ar    1  UNL1        0.0213
     25 C         138.8183  140.8631  165.1518 C.ar    1  UNL1        0.0016
     26 C         138.2642  140.5981  163.7833 C.ar    1  UNL1        0.0294
     27 C         138.3246  139.2156  163.2045 C.ar    1  UNL1        0.1401
     28 F         137.7705  138.9506  161.8360 F       1  UNL1       -0.2042
     29 C         138.9391  138.0980  163.9942 C.ar    1  UNL1        0.0294
     30 C         139.4932  138.3630  165.3627 C.ar    1  UNL1        0.0016
@<TRIPOS>BOND
     1    20    21    1
     2    21    19    1
     3    19    17    1
     4    17    16    1
     5    16    10    1
     6    10    11   ar
     7    11    12   ar
     8    12    13   ar
     9    13     9    1
    10     9     8    1
    11     8     1    1
    12     1     2   ar
    13     2     3   ar
    14     3     4   ar
    15     4    22    1
    16    22    23    1
    17    23    24    1
    18    24    25   ar
    19    25    26   ar
    20    26    27   ar
    21    27    28    1
    22    27    29   ar
    23    29    30   ar
    24     4     5   ar
    25     5     6   ar
    26     6     7    2
    27    13    14   ar
    28    14    15   ar
    29    15    10   ar
    30     6     1   ar
    31    30    24   ar
    32    17    18    1
