@<TRIPOS>MOLECULE
*****
 34 39 0 0 0
SMALL
GASTEIGER

@<TRIPOS>ATOM
      1 C         141.3148  144.5044  162.5276 C.ar    1  UNL1        0.1669
      2 N         140.2601  145.5665  162.6271 N.ar    1  UNL1       -0.1282
      3 N         139.7533  145.8475  161.2436 N.ar    1  UNL1       -0.1221
      4 C         140.4946  144.9591  160.2889 C.ar    1  UNL1        0.1932
      5 N         141.4597  144.1291  161.0826 N.ar    1  UNL1       -0.2884
      6 C         142.4039  143.1037  160.5284 C.3     1  UNL1        0.1340
      7 C         139.4341  140.0751  167.4361 C.3     1  UNL1        0.0521
      8 C         140.0978  141.0364  166.4951 C.ar    1  UNL1        0.0593
      9 C         139.3240  141.6205  165.3506 C.ar    1  UNL1        0.0147
     10 C         139.9876  142.5818  164.4096 C.ar    1  UNL1        0.0028
     11 C         141.4250  142.9590  164.6131 C.ar    1  UNL1        0.0206
     12 C         142.0886  143.9204  163.6722 C.ar    1  UNL1        0.0374
     13 C         143.5260  144.2976  163.8757 C.ar    1  UNL1        0.0031
     14 C         144.2999  143.7135  165.0203 C.ar    1  UNL1        0.0016
     15 C         143.6363  142.7522  165.9613 C.ar    1  UNL1        0.0191
     16 C         142.1988  142.3750  165.7577 C.ar    1  UNL1        0.0810
     17 N         141.5352  141.4136  166.6987 N.ar    1  UNL1       -0.2497
     18 S         140.3043  144.9095  158.8019 S.3     1  UNL1       -0.0756
     19 C         139.6284  143.7282  158.1713 C.3     1  UNL1        0.0666
     20 C         138.7245  142.8557  158.9908 C.3     1  UNL1        0.0294
     21 C         138.7968  141.3636  158.8547 C.3     1  UNL1        0.0730
     22 N         138.7287  140.4950  160.0758 N.3     1  UNL1       -0.2724
     23 C         137.5238  139.7414  160.5555 C.3     1  UNL1        0.0724
     24 C         137.9040  139.0081  161.8076 C.3     1  UNL1        0.0214
     25 C         138.5650  138.4060  163.0121 C.3     1  UNL1        0.0072
     26 C         139.3439  139.3085  162.1016 C.3     1  UNL1        0.0350
     27 C         139.8536  140.2274  161.0313 C.3     1  UNL1        0.0761
     28 C         140.6316  139.2295  162.8668 C.ar    1  UNL1       -0.0214
     29 C         140.7282  138.3593  164.0847 C.ar    1  UNL1       -0.0037
     30 C         142.0160  138.2804  164.8499 C.ar    1  UNL1        0.0064
     31 C         143.2071  139.0718  164.3972 C.ar    1  UNL1        0.0345
     32 BR        144.4948  138.9929  165.1624 Br      1  UNL1       -0.0490
     33 C         143.1105  139.9420  163.1793 C.ar    1  UNL1        0.0064
     34 C         141.8227  140.0209  162.4141 C.ar    1  UNL1       -0.0037
@<TRIPOS>BOND
     1     7     8    1
     2     8     9   ar
     3     9    10   ar
     4    10    11   ar
     5    11    12   ar
     6    12     1    1
     7     1     2   ar
     8     2     3   ar
     9     3     4   ar
    10     4    18    1
    11    18    19    1
    12    19    20    1
    13    20    21    1
    14    21    22    1
    15    22    23    1
    16    24    23    1
    17    24    25    1
    18    25    26    1
    19    26    28    1
    20    28    29   ar
    21    29    30   ar
    22    30    31   ar
    23    31    32    1
    24    31    33   ar
    25    33    34   ar
    26    26    27    1
    27     4     5   ar
    28     5     6    1
    29    12    13   ar
    30    13    14   ar
    31    14    15   ar
    32    15    16   ar
    33    16    17   ar
    34    17     8   ar
    35    16    11   ar
    36     5     1   ar
    37    27    22    1
    38    26    24    1
    39    34    28   ar
@<TRIPOS>MOLECULE
*****
 34 39 0 0 0
SMALL
GASTEIGER

@<TRIPOS>ATOM
      1 C         139.8683  140.9371  160.7096 C.ar    1  UNL1        0.1669
      2 N         138.4527  141.1219  160.2489 N.ar    1  UNL1       -0.1282
      3 N         138.3875  142.3885  159.4479 N.ar    1  UNL1       -0.1221
      4 C         139.7628  142.9865  159.4135 C.ar    1  UNL1        0.1932
      5 N         140.6779  142.0895  160.1933 N.ar    1  UNL1       -0.2884
      6 C         142.1451  142.3067  160.4174 C.3     1  UNL1        0.1340
      7 C         138.0472  138.7488  166.9662 C.3     1  UNL1        0.0521
      8 C         138.6313  139.0115  165.6098 C.ar    1  UNL1        0.0593
      9 C         138.1160  140.1489  164.7788 C.ar    1  UNL1        0.0147
     10 C         138.7001  140.4116  163.4224 C.ar    1  UNL1        0.0028
     11 C         139.7995  139.5369  162.8970 C.ar    1  UNL1        0.0206
     12 C         140.3836  139.7997  161.5406 C.ar    1  UNL1        0.0374
     13 C         141.4830  138.9250  161.0152 C.ar    1  UNL1        0.0031
     14 C         141.9984  137.7875  161.8462 C.ar    1  UNL1        0.0016
     15 C         141.4144  137.5247  163.2026 C.ar    1  UNL1        0.0191
     16 C         140.3149  138.3995  163.7280 C.ar    1  UNL1        0.0810
     17 N         139.7308  138.1368  165.0844 N.ar    1  UNL1       -0.2497
     18 S         140.1541  144.2582  158.7210 S.3     1  UNL1       -0.0756
     19 C         140.2363  145.5397  159.4963 C.3     1  UNL1        0.0666
     20 C         140.6329  145.5170  160.9427 C.3     1  UNL1        0.0294
     21 C         139.5822  145.6008  162.0099 C.3     1  UNL1        0.0730
     22 N         139.7332  144.8091  163.2751 N.3     1  UNL1       -0.2724
     23 C         138.9223  144.9815  164.5250 C.3     1  UNL1        0.0724
     24 C         139.4096  143.9851  165.5348 C.3     1  UNL1        0.0214
     25 C         140.0965  142.9054  166.3175 C.3     1  UNL1        0.0072
     26 C         140.5218  143.1969  164.9088 C.3     1  UNL1        0.0350
     27 C         140.7218  143.7062  163.5122 C.3     1  UNL1        0.0761
     28 C         141.5992  142.1549  164.8515 C.ar    1  UNL1       -0.0214
     29 C         141.7224  141.1422  165.9511 C.ar    1  UNL1       -0.0037
     30 C         142.7999  140.1001  165.8938 C.ar    1  UNL1        0.0064
     31 C         143.7542  140.0708  164.7369 C.ar    1  UNL1        0.0345
     32 BR        144.8316  139.0288  164.6796 Br      1  UNL1       -0.0490
     33 C         143.6309  141.0836  163.6373 C.ar    1  UNL1        0.0064
     34 C         142.5535  142.1256  163.6946 C.ar    1  UNL1       -0.0037
@<TRIPOS>BOND
     1     7     8    1
     2     8     9   ar
     3     9    10   ar
     4    10    11   ar
     5    11    12   ar
     6    12     1    1
     7     1     2   ar
     8     2     3   ar
     9     3     4   ar
    10     4    18    1
    11    18    19    1
    12    19    20    1
    13    20    21    1
    14    21    22    1
    15    22    23    1
    16    24    23    1
    17    24    25    1
    18    25    26    1
    19    26    28    1
    20    28    29   ar
    21    29    30   ar
    22    30    31   ar
    23    31    32    1
    24    31    33   ar
    25    33    34   ar
    26    26    27    1
    27     4     5   ar
    28     5     6    1
    29    12    13   ar
    30    13    14   ar
    31    14    15   ar
    32    15    16   ar
    33    16    17   ar
    34    17     8   ar
    35    16    11   ar
    36     5     1   ar
    37    27    22    1
    38    26    24    1
    39    34    28   ar
@<TRIPOS>MOLECULE
*****
 34 39 0 0 0
SMALL
GASTEIGER

@<TRIPOS>ATOM
      1 C         139.1478  140.8792  161.3808 C.ar    1  UNL1        0.1669
      2 N         138.1734  141.9595  161.7461 N.ar    1  UNL1       -0.1282
      3 N         138.0891  142.9167  160.5943 N.ar    1  UNL1       -0.1221
      4 C         139.0114  142.4280  159.5170 C.ar    1  UNL1        0.1932
      5 N         139.6658  141.1687  160.0031 N.ar    1  UNL1       -0.2884
      6 C         140.6629  140.3438  159.2446 C.3     1  UNL1        0.1340
      7 C         145.1245  139.2990  164.3862 C.3     1  UNL1        0.0521
      8 C         143.7274  139.4027  163.8501 C.ar    1  UNL1        0.0593
      9 C         143.3391  140.5679  162.9891 C.ar    1  UNL1        0.0147
     10 C         141.9420  140.6717  162.4530 C.ar    1  UNL1        0.0028
     11 C         140.9332  139.6102  162.7779 C.ar    1  UNL1        0.0206
     12 C         139.5362  139.7140  162.2418 C.ar    1  UNL1        0.0374
     13 C         138.5274  138.6525  162.5668 C.ar    1  UNL1        0.0031
     14 C         138.9157  137.4873  163.4279 C.ar    1  UNL1        0.0016
     15 C         140.3127  137.3835  163.9640 C.ar    1  UNL1        0.0191
     16 C         141.3215  138.4450  163.6390 C.ar    1  UNL1        0.0810
     17 N         142.7186  138.3413  164.1751 N.ar    1  UNL1       -0.2497
     18 S         139.2393  143.0834  158.1872 S.3     1  UNL1       -0.0756
     19 C         140.3025  144.1313  158.0399 C.3     1  UNL1        0.0666
     20 C         140.4519  145.1996  159.0822 C.3     1  UNL1        0.0294
     21 C         141.2841  144.9444  160.3038 C.3     1  UNL1        0.0730
     22 N         140.6325  144.8697  161.6529 N.3     1  UNL1       -0.2724
     23 C         139.5085  145.7362  162.1383 C.3     1  UNL1        0.0724
     24 C         139.1719  145.3174  163.5388 C.3     1  UNL1        0.0214
     25 C         139.0656  144.6900  164.8972 C.3     1  UNL1        0.0072
     26 C         140.0879  144.1921  163.9189 C.3     1  UNL1        0.0350
     27 C         140.9906  143.9154  162.7534 C.3     1  UNL1        0.0761
     28 C         140.6597  143.1336  164.8148 C.ar    1  UNL1       -0.0214
     29 C         139.7915  142.0093  165.2964 C.ar    1  UNL1       -0.0037
     30 C         140.3634  140.9508  166.1923 C.ar    1  UNL1        0.0064
     31 C         141.8035  141.0168  166.6067 C.ar    1  UNL1        0.0345
     32 BR        142.3753  139.9583  167.5027 Br      1  UNL1       -0.0490
     33 C         142.6717  142.1411  166.1252 C.ar    1  UNL1        0.0064
     34 C         142.0998  143.1996  165.2292 C.ar    1  UNL1       -0.0037
@<TRIPOS>BOND
     1     7     8    1
     2     8     9   ar
     3     9    10   ar
     4    10    11   ar
     5    11    12   ar
     6    12     1    1
     7     1     2   ar
     8     2     3   ar
     9     3     4   ar
    10     4    18    1
    11    18    19    1
    12    19    20    1
    13    20    21    1
    14    21    22    1
    15    22    23    1
    16    24    23    1
    17    24    25    1
    18    25    26    1
    19    26    28    1
    20    28    29   ar
    21    29    30   ar
    22    30    31   ar
    23    31    32    1
    24    31    33   ar
    25    33    34   ar
    26    26    27    1
    27     4     5   ar
    28     5     6    1
    29    12    13   ar
    30    13    14   ar
    31    14    15   ar
    32    15    16   ar
    33    16    17   ar
    34    17     8   ar
    35    16    11   ar
    36     5     1   ar
    37    27    22    1
    38    26    24    1
    39    34    28   ar
@<TRIPOS>MOLECULE
*****
 34 39 0 0 0
SMALL
GASTEIGER

@<TRIPOS>ATOM
      1 C         143.7253  141.6567  163.6648 C.ar    1  UNL1        0.1669
      2 N         144.1417  143.0889  163.8245 N.ar    1  UNL1       -0.1282
      3 N         144.1920  143.7118  162.4608 N.ar    1  UNL1       -0.1221
      4 C         143.8068  142.6646  161.4583 C.ar    1  UNL1        0.1932
      5 N         143.5183  141.3944  162.2025 N.ar    1  UNL1       -0.2884
      6 C         143.0968  140.0909  161.5915 C.3     1  UNL1        0.1340
      7 C         139.8300  141.8729  169.3243 C.3     1  UNL1        0.0521
      8 C         140.7593  141.5700  168.1865 C.ar    1  UNL1        0.0593
      9 C         140.9374  142.5652  167.0784 C.ar    1  UNL1        0.0147
     10 C         141.8667  142.2624  165.9405 C.ar    1  UNL1        0.0028
     11 C         142.6178  140.9644  165.9108 C.ar    1  UNL1        0.0206
     12 C         143.5471  140.6615  164.7729 C.ar    1  UNL1        0.0374
     13 C         144.2983  139.3635  164.7431 C.ar    1  UNL1        0.0031
     14 C         144.1202  138.3683  165.8512 C.ar    1  UNL1        0.0016
     15 C         143.1909  138.6711  166.9891 C.ar    1  UNL1        0.0191
     16 C         142.4397  139.9692  167.0188 C.ar    1  UNL1        0.0810
     17 N         141.5104  140.2720  168.1567 N.ar    1  UNL1       -0.2497
     18 S         143.7244  142.8541  159.9727 S.3     1  UNL1       -0.0756
     19 C         142.3986  142.7621  159.2772 C.3     1  UNL1        0.0666
     20 C         141.4772  143.9456  159.2595 C.3     1  UNL1        0.0294
     21 C         141.3997  144.8536  160.4509 C.3     1  UNL1        0.0730
     22 N         140.4155  144.5704  161.5470 N.3     1  UNL1       -0.2724
     23 C         139.4804  145.5638  162.1704 C.3     1  UNL1        0.0724
     24 C         138.6806  144.8515  163.2208 C.3     1  UNL1        0.0214
     25 C         138.0488  143.8896  164.1828 C.3     1  UNL1        0.0072
     26 C         139.1216  143.4180  163.2464 C.3     1  UNL1        0.0350
     27 C         140.1938  143.2443  162.2120 C.3     1  UNL1        0.0761
     28 C         139.1241  141.9933  163.7156 C.ar    1  UNL1       -0.0214
     29 C         138.2490  141.5794  164.8614 C.ar    1  UNL1       -0.0037
     30 C         138.2516  140.1547  165.3306 C.ar    1  UNL1        0.0064
     31 C         139.1293  139.1438  164.6541 C.ar    1  UNL1        0.0345
     32 BR        139.1318  137.7191  165.1233 Br      1  UNL1       -0.0490
     33 C         140.0044  139.5577  163.5083 C.ar    1  UNL1        0.0064
     34 C         140.0018  140.9824  163.0391 C.ar    1  UNL1       -0.0037
@<TRIPOS>BOND
     1     7     8    1
     2     8     9   ar
     3     9    10   ar
     4    10    11   ar
     5    11    12   ar
     6    12     1    1
     7     1     2   ar
     8     2     3   ar
     9     3     4   ar
    10     4    18    1
    11    18    19    1
    12    19    20    1
    13    20    21    1
    14    21    22    1
    15    22    23    1
    16    24    23    1
    17    24    25    1
    18    25    26    1
    19    26    28    1
    20    28    29   ar
    21    29    30   ar
    22    30    31   ar
    23    31    32    1
    24    31    33   ar
    25    33    34   ar
    26    26    27    1
    27     4     5   ar
    28     5     6    1
    29    12    13   ar
    30    13    14   ar
    31    14    15   ar
    32    15    16   ar
    33    16    17   ar
    34    17     8   ar
    35    16    11   ar
    36     5     1   ar
    37    27    22    1
    38    26    24    1
    39    34    28   ar
@<TRIPOS>MOLECULE
*****
 34 39 0 0 0
SMALL
GASTEIGER

@<TRIPOS>ATOM
      1 C         142.4999  140.4961  161.5484 C.ar    1  UNL1        0.1669
      2 N         141.7077  139.7925  160.4865 N.ar    1  UNL1       -0.1282
      3 N         141.7525  140.6303  159.2431 N.ar    1  UNL1       -0.1221
      4 C         142.5724  141.8517  159.5364 C.ar    1  UNL1        0.1932
      5 N         143.0343  141.7688  160.9611 N.ar    1  UNL1       -0.2884
      6 C         143.8818  142.7808  161.6735 C.3     1  UNL1        0.1340
      7 C         138.0220  139.0068  166.5464 C.3     1  UNL1        0.0521
      8 C         139.1963  139.2581  165.6475 C.ar    1  UNL1        0.0593
      9 C         138.9770  139.7421  164.2448 C.ar    1  UNL1        0.0147
     10 C         140.1513  139.9935  163.3460 C.ar    1  UNL1        0.0028
     11 C         141.5448  139.7608  163.8499 C.ar    1  UNL1        0.0206
     12 C         142.7191  140.0121  162.9511 C.ar    1  UNL1        0.0374
     13 C         144.1126  139.7794  163.4549 C.ar    1  UNL1        0.0031
     14 C         144.3319  139.2954  164.8577 C.ar    1  UNL1        0.0016
     15 C         143.1576  139.0440  165.7565 C.ar    1  UNL1        0.0191
     16 C         141.7641  139.2767  165.2526 C.ar    1  UNL1        0.0810
     17 N         140.5898  139.0254  166.1514 N.ar    1  UNL1       -0.2497
     18 S         142.8770  142.9612  158.5739 S.3     1  UNL1       -0.0756
     19 C         142.2238  144.3009  158.7428 C.3     1  UNL1        0.0666
     20 C         140.9946  144.4342  159.5921 C.3     1  UNL1        0.0294
     21 C         141.0822  145.0836  160.9414 C.3     1  UNL1        0.0730
     22 N         140.3199  144.5117  162.0999 N.3     1  UNL1       -0.2724
     23 C         138.8307  144.3522  162.1828 C.3     1  UNL1        0.0724
     24 C         138.5034  143.7409  163.5129 C.3     1  UNL1        0.0214
     25 C         138.4867  143.1366  164.8857 C.3     1  UNL1        0.0072
     26 C         139.7903  143.5227  164.2520 C.3     1  UNL1        0.0350
     27 C         140.9129  143.9990  163.3787 C.3     1  UNL1        0.0761
     28 C         140.6558  143.0907  165.3984 C.ar    1  UNL1       -0.0214
     29 C         140.0339  142.7418  166.7179 C.ar    1  UNL1       -0.0037
     30 C         140.8994  142.3098  167.8643 C.ar    1  UNL1        0.0064
     31 C         142.3871  142.2267  167.6911 C.ar    1  UNL1        0.0345
     32 BR        143.2527  141.7947  168.8375 Br      1  UNL1       -0.0490
     33 C         143.0091  142.5756  166.3715 C.ar    1  UNL1        0.0064
     34 C         142.1435  143.0076  165.2252 C.ar    1  UNL1       -0.0037
@<TRIPOS>BOND
     1     7     8    1
     2     8     9   ar
     3     9    10   ar
     4    10    11   ar
     5    11    12   ar
     6    12     1    1
     7     1     2   ar
     8     2     3   ar
     9     3     4   ar
    10     4    18    1
    11    18    19    1
    12    19    20    1
    13    20    21    1
    14    21    22    1
    15    22    23    1
    16    24    23    1
    17    24    25    1
    18    25    26    1
    19    26    28    1
    20    28    29   ar
    21    29    30   ar
    22    30    31   ar
    23    31    32    1
    24    31    33   ar
    25    33    34   ar
    26    26    27    1
    27     4     5   ar
    28     5     6    1
    29    12    13   ar
    30    13    14   ar
    31    14    15   ar
    32    15    16   ar
    33    16    17   ar
    34    17     8   ar
    35    16    11   ar
    36     5     1   ar
    37    27    22    1
    38    26    24    1
    39    34    28   ar
@<TRIPOS>MOLECULE
*****
 34 39 0 0 0
SMALL
GASTEIGER

@<TRIPOS>ATOM
      1 C         138.7809  141.3071  162.8718 C.ar    1  UNL1        0.1669
      2 N         137.8967  141.5317  161.6811 N.ar    1  UNL1       -0.1282
      3 N         137.7130  143.0109  161.5125 N.ar    1  UNL1       -0.1221
      4 C         138.4838  143.7005  162.5990 C.ar    1  UNL1        0.1932
      5 N         139.1438  142.6474  163.4391 N.ar    1  UNL1       -0.2884
      6 C         140.0138  142.8919  164.6363 C.3     1  UNL1        0.1340
      7 C         144.3039  137.4894  161.3979 C.3     1  UNL1        0.0521
      8 C         143.0340  138.1110  161.8989 C.ar    1  UNL1        0.0593
      9 C         142.5905  139.4422  161.3687 C.ar    1  UNL1        0.0147
     10 C         141.3207  140.0638  161.8697 C.ar    1  UNL1        0.0028
     11 C         140.4943  139.3543  162.9010 C.ar    1  UNL1        0.0206
     12 C         139.2244  139.9759  163.4020 C.ar    1  UNL1        0.0374
     13 C         138.3980  139.2663  164.4333 C.ar    1  UNL1        0.0031
     14 C         138.8415  137.9351  164.9636 C.ar    1  UNL1        0.0016
     15 C         140.1114  137.3134  164.4626 C.ar    1  UNL1        0.0191
     16 C         140.9378  138.0231  163.4312 C.ar    1  UNL1        0.0810
     17 N         142.2076  137.4015  162.9302 N.ar    1  UNL1       -0.2497
     18 S         138.5780  145.1828  162.8087 S.3     1  UNL1       -0.0756
     19 C         139.7611  145.9407  162.2837 C.3     1  UNL1        0.0666
     20 C         141.1488  145.5375  162.6860 C.3     1  UNL1        0.0294
     21 C         141.9967  144.7302  161.7483 C.3     1  UNL1        0.0730
     22 N         142.9383  143.6959  162.2903 N.3     1  UNL1       -0.2724
     23 C         144.1998  143.2209  161.6323 C.3     1  UNL1        0.0724
     24 C         144.8249  142.1866  162.5208 C.3     1  UNL1        0.0214
     25 C         145.2027  141.2088  163.5938 C.3     1  UNL1        0.0072
     26 C         143.9497  142.0224  163.7279 C.3     1  UNL1        0.0350
     27 C         142.7837  142.9552  163.5854 C.3     1  UNL1        0.0761
     28 C         143.5332  141.4518  165.0511 C.ar    1  UNL1       -0.0214
     29 C         143.2973  142.3621  166.2197 C.ar    1  UNL1       -0.0037
     30 C         142.8807  141.7914  167.5429 C.ar    1  UNL1        0.0064
     31 C         142.7001  140.3104  167.6975 C.ar    1  UNL1        0.0345
     32 BR        142.2835  139.7397  169.0207 Br      1  UNL1       -0.0490
     33 C         142.9359  139.4001  166.5289 C.ar    1  UNL1        0.0064
     34 C         143.3525  139.9707  165.2057 C.ar    1  UNL1       -0.0037
@<TRIPOS>BOND
     1     7     8    1
     2     8     9   ar
     3     9    10   ar
     4    10    11   ar
     5    11    12   ar
     6    12     1    1
     7     1     2   ar
     8     2     3   ar
     9     3     4   ar
    10     4    18    1
    11    18    19    1
    12    19    20    1
    13    20    21    1
    14    21    22    1
    15    22    23    1
    16    24    23    1
    17    24    25    1
    18    25    26    1
    19    26    28    1
    20    28    29   ar
    21    29    30   ar
    22    30    31   ar
    23    31    32    1
    24    31    33   ar
    25    33    34   ar
    26    26    27    1
    27     4     5   ar
    28     5     6    1
    29    12    13   ar
    30    13    14   ar
    31    14    15   ar
    32    15    16   ar
    33    16    17   ar
    34    17     8   ar
    35    16    11   ar
    36     5     1   ar
    37    27    22    1
    38    26    24    1
    39    34    28   ar
@<TRIPOS>MOLECULE
*****
 34 39 0 0 0
SMALL
GASTEIGER

@<TRIPOS>ATOM
      1 C         138.4208  141.6416  161.5461 C.ar    1  UNL1        0.1669
      2 N         137.7737  140.2906  161.6256 N.ar    1  UNL1       -0.1282
      3 N         137.6621  139.7473  160.2319 N.ar    1  UNL1       -0.1221
      4 C         138.2402  140.7625  159.2909 C.ar    1  UNL1        0.1932
      5 N         138.7092  141.9332  160.1032 N.ar    1  UNL1       -0.2884
      6 C         139.3533  143.1771  159.5667 C.3     1  UNL1        0.1340
      7 C         144.3976  143.2835  164.5179 C.3     1  UNL1        0.0521
      8 C         142.9797  143.0983  164.0649 C.ar    1  UNL1        0.0593
      9 C         142.6745  142.1973  162.9052 C.ar    1  UNL1        0.0147
     10 C         141.2566  142.0120  162.4522 C.ar    1  UNL1        0.0028
     11 C         140.1439  142.7278  163.1588 C.ar    1  UNL1        0.0206
     12 C         138.7260  142.5426  162.7058 C.ar    1  UNL1        0.0374
     13 C         137.6133  143.2584  163.4124 C.ar    1  UNL1        0.0031
     14 C         137.9184  144.1595  164.5722 C.ar    1  UNL1        0.0016
     15 C         139.3363  144.3447  165.0253 C.ar    1  UNL1        0.0191
     16 C         140.4491  143.6289  164.3185 C.ar    1  UNL1        0.0810
     17 N         141.8670  143.8141  164.7716 N.ar    1  UNL1       -0.2497
     18 S         138.3331  140.6302  157.7997 S.3     1  UNL1       -0.0756
     19 C         139.4376  139.8220  157.1858 C.3     1  UNL1        0.0666
     20 C         140.7474  139.6759  157.9022 C.3     1  UNL1        0.0294
     21 C         141.0832  138.3893  158.5962 C.3     1  UNL1        0.0730
     22 N         141.6856  138.4130  159.9698 N.3     1  UNL1       -0.2724
     23 C         143.1510  138.4071  160.2900 C.3     1  UNL1        0.0724
     24 C         143.2995  138.4373  161.7823 C.3     1  UNL1        0.0214
     25 C         143.1344  138.4702  163.2728 C.3     1  UNL1        0.0072
     26 C         141.9259  138.4619  162.3844 C.3     1  UNL1        0.0350
     27 C         140.9284  138.4469  161.2641 C.3     1  UNL1        0.0761
     28 C         140.9160  138.4940  163.4930 C.ar    1  UNL1       -0.0214
     29 C         141.1578  139.3462  164.7034 C.ar    1  UNL1       -0.0037
     30 C         140.1479  139.3783  165.8121 C.ar    1  UNL1        0.0064
     31 C         138.8962  138.5581  165.7103 C.ar    1  UNL1        0.0345
     32 BR        137.8863  138.5902  166.8190 Br      1  UNL1       -0.0490
     33 C         138.6544  137.7058  164.5000 C.ar    1  UNL1        0.0064
     34 C         139.6643  137.6737  163.3913 C.ar    1  UNL1       -0.0037
@<TRIPOS>BOND
     1     7     8    1
     2     8     9   ar
     3     9    10   ar
     4    10    11   ar
     5    11    12   ar
     6    12     1    1
     7     1     2   ar
     8     2     3   ar
     9     3     4   ar
    10     4    18    1
    11    18    19    1
    12    19    20    1
    13    20    21    1
    14    21    22    1
    15    22    23    1
    16    24    23    1
    17    24    25    1
    18    25    26    1
    19    26    28    1
    20    28    29   ar
    21    29    30   ar
    22    30    31   ar
    23    31    32    1
    24    31    33   ar
    25    33    34   ar
    26    26    27    1
    27     4     5   ar
    28     5     6    1
    29    12    13   ar
    30    13    14   ar
    31    14    15   ar
    32    15    16   ar
    33    16    17   ar
    34    17     8   ar
    35    16    11   ar
    36     5     1   ar
    37    27    22    1
    38    26    24    1
    39    34    28   ar
@<TRIPOS>MOLECULE
*****
 34 39 0 0 0
SMALL
GASTEIGER

@<TRIPOS>ATOM
      1 C         143.0447  140.2465  162.1330 C.ar    1  UNL1        0.1669
      2 N         142.5166  138.9716  162.7211 N.ar    1  UNL1       -0.1282
      3 N         142.3496  137.9813  161.6069 N.ar    1  UNL1       -0.1221
      4 C         142.7746  138.6441  160.3301 C.ar    1  UNL1        0.1932
      5 N         143.2042  140.0440  160.6552 N.ar    1  UNL1       -0.2884
      6 C         143.7053  141.0627  159.6748 C.3     1  UNL1        0.1340
      7 C         139.9674  146.3930  162.1217 C.3     1  UNL1        0.0521
      8 C         140.8151  145.1705  162.3137 C.ar    1  UNL1        0.0593
      9 C         140.5015  143.9139  161.5570 C.ar    1  UNL1        0.0147
     10 C         141.3493  142.6914  161.7490 C.ar    1  UNL1        0.0028
     11 C         142.5106  142.7255  162.6977 C.ar    1  UNL1        0.0206
     12 C         143.3583  141.5030  162.8897 C.ar    1  UNL1        0.0374
     13 C         144.5197  141.5371  163.8384 C.ar    1  UNL1        0.0031
     14 C         144.8334  142.7937  164.5951 C.ar    1  UNL1        0.0016
     15 C         143.9856  144.0162  164.4031 C.ar    1  UNL1        0.0191
     16 C         142.8242  143.9821  163.4544 C.ar    1  UNL1        0.0810
     17 N         141.9765  145.2046  163.2624 N.ar    1  UNL1       -0.2497
     18 S         142.7706  138.0170  158.9675 S.3     1  UNL1       -0.0756
     19 C         141.7170  138.3975  157.9699 C.3     1  UNL1        0.0666
     20 C         140.2719  138.1241  158.2642 C.3     1  UNL1        0.0294
     21 C         139.4365  139.1639  158.9505 C.3     1  UNL1        0.0730
     22 N         139.1658  139.0572  160.4221 N.3     1  UNL1       -0.2724
     23 C         138.9436  137.7867  161.1877 C.3     1  UNL1        0.0724
     24 C         138.7103  138.1465  162.6251 C.3     1  UNL1        0.0214
     25 C         138.5149  138.8006  163.9608 C.3     1  UNL1        0.0072
     26 C         138.7883  139.6394  162.7477 C.3     1  UNL1        0.0350
     27 C         139.0698  140.2023  161.3862 C.3     1  UNL1        0.0761
     28 C         138.7495  140.9599  163.4583 C.ar    1  UNL1       -0.0214
     29 C         139.7550  141.2656  164.5285 C.ar    1  UNL1       -0.0037
     30 C         139.7162  142.5860  165.2390 C.ar    1  UNL1        0.0064
     31 C         138.6718  143.6009  164.8793 C.ar    1  UNL1        0.0345
     32 BR        138.6330  144.9214  165.5899 Br      1  UNL1       -0.0490
     33 C         137.6663  143.2952  163.8091 C.ar    1  UNL1        0.0064
     34 C         137.7051  141.9747  163.0986 C.ar    1  UNL1       -0.0037
@<TRIPOS>BOND
     1     7     8    1
     2     8     9   ar
     3     9    10   ar
     4    10    11   ar
     5    11    12   ar
     6    12     1    1
     7     1     2   ar
     8     2     3   ar
     9     3     4   ar
    10     4    18    1
    11    18    19    1
    12    19    20    1
    13    20    21    1
    14    21    22    1
    15    22    23    1
    16    24    23    1
    17    24    25    1
    18    25    26    1
    19    26    28    1
    20    28    29   ar
    21    29    30   ar
    22    30    31   ar
    23    31    32    1
    24    31    33   ar
    25    33    34   ar
    26    26    27    1
    27     4     5   ar
    28     5     6    1
    29    12    13   ar
    30    13    14   ar
    31    14    15   ar
    32    15    16   ar
    33    16    17   ar
    34    17     8   ar
    35    16    11   ar
    36     5     1   ar
    37    27    22    1
    38    26    24    1
    39    34    28   ar
@<TRIPOS>MOLECULE
*****
 34 39 0 0 0
SMALL
GASTEIGER

@<TRIPOS>ATOM
      1 C         141.4070  142.2835  163.9577 C.ar    1  UNL1        0.1669
      2 N         140.2263  143.0868  164.4170 N.ar    1  UNL1       -0.1282
      3 N         139.9333  144.1203  163.3701 N.ar    1  UNL1       -0.1221
      4 C         140.9329  143.9558  162.2638 C.ar    1  UNL1        0.1932
      5 N         141.8437  142.8206  162.6270 N.ar    1  UNL1       -0.2884
      6 C         142.9898  142.3118  161.8039 C.3     1  UNL1        0.1340
      7 C         140.4777  140.0252  170.3832 C.3     1  UNL1        0.0521
      8 C         140.8682  140.3048  168.9622 C.ar    1  UNL1        0.0593
      9 C         140.2354  141.4449  168.2209 C.ar    1  UNL1        0.0147
     10 C         140.6259  141.7244  166.7998 C.ar    1  UNL1        0.0028
     11 C         141.6492  140.8638  166.1201 C.ar    1  UNL1        0.0206
     12 C         142.0398  141.1433  164.6990 C.ar    1  UNL1        0.0374
     13 C         143.0631  140.2827  164.0193 C.ar    1  UNL1        0.0031
     14 C         143.6959  139.1424  164.7606 C.ar    1  UNL1        0.0016
     15 C         143.3054  138.8629  166.1817 C.ar    1  UNL1        0.0191
     16 C         142.2820  139.7236  166.8614 C.ar    1  UNL1        0.0810
     17 N         141.8915  139.4441  168.2824 N.ar    1  UNL1       -0.2497
     18 S         141.0085  144.7816  161.0138 S.3     1  UNL1       -0.0756
     19 C         140.3127  144.3208  159.7674 C.3     1  UNL1        0.0666
     20 C         139.4468  143.0964  159.8008 C.3     1  UNL1        0.0294
     21 C         139.8977  141.8400  159.1167 C.3     1  UNL1        0.0730
     22 N         140.3036  140.6470  159.9305 N.3     1  UNL1       -0.2724
     23 C         141.2888  139.5933  159.5195 C.3     1  UNL1        0.0724
     24 C         141.3896  138.5934  160.6331 C.3     1  UNL1        0.0214
     25 C         141.2796  137.7782  161.8874 C.3     1  UNL1        0.0072
     26 C         140.4667  139.0292  161.7323 C.3     1  UNL1        0.0350
     27 C         139.7955  140.2985  161.2981 C.3     1  UNL1        0.0761
     28 C         139.7886  138.9422  163.0675 C.ar    1  UNL1       -0.0214
     29 C         140.1508  137.8437  164.0224 C.ar    1  UNL1       -0.0037
     30 C         139.4727  137.7566  165.3576 C.ar    1  UNL1        0.0064
     31 C         138.4325  138.7682  165.7378 C.ar    1  UNL1        0.0345
     32 BR        137.7545  138.6812  167.0730 Br      1  UNL1       -0.0490
     33 C         138.0704  139.8668  164.7829 C.ar    1  UNL1        0.0064
     34 C         138.7484  139.9538  163.4477 C.ar    1  UNL1       -0.0037
@<TRIPOS>BOND
     1     7     8    1
     2     8     9   ar
     3     9    10   ar
     4    10    11   ar
     5    11    12   ar
     6    12     1    1
     7     1     2   ar
     8     2     3   ar
     9     3     4   ar
    10     4    18    1
    11    18    19    1
    12    19    20    1
    13    20    21    1
    14    21    22    1
    15    22    23    1
    16    24    23    1
    17    24    25    1
    18    25    26    1
    19    26    28    1
    20    28    29   ar
    21    29    30   ar
    22    30    31   ar
    23    31    32    1
    24    31    33   ar
    25    33    34   ar
    26    26    27    1
    27     4     5   ar
    28     5     6    1
    29    12    13   ar
    30    13    14   ar
    31    14    15   ar
    32    15    16   ar
    33    16    17   ar
    34    17     8   ar
    35    16    11   ar
    36     5     1   ar
    37    27    22    1
    38    26    24    1
    39    34    28   ar
