@<TRIPOS>MOLECULE
*****
 26 29 0 0 0
SMALL
GASTEIGER

@<TRIPOS>ATOM
      1 C         139.1299  141.5368  164.5441 C.ar    1  UNL1        0.0685
      2 C         137.7584  141.9843  164.1336 C.ar    1  UNL1        0.0208
      3 C         137.4912  142.3727  162.7096 C.ar    1  UNL1        0.0384
      4 C         138.5955  142.3137  161.6962 C.ar    1  UNL1        0.1386
      5 C         139.9670  141.8662  162.1067 C.ar    1  UNL1        0.0384
      6 C         140.2343  141.4777  163.5307 C.ar    1  UNL1        0.0208
      7 O         140.7009  143.3665  166.3285 O.2     1  UNL1       -0.2665
      8 C         140.1827  142.0632  166.8603 C.ar    1  UNL1        0.2673
      9 C         140.4500  141.6747  168.2843 C.ar    1  UNL1        0.0742
     10 C         141.2354  142.5896  169.1765 C.ar    1  UNL1        0.0063
     11 C         141.5027  142.2011  170.6004 C.ar    1  UNL1        0.0003
     12 C         140.9845  140.8977  171.1321 C.ar    1  UNL1        0.0015
     13 C         140.1990  139.9829  170.2400 C.ar    1  UNL1        0.0193
     14 C         139.9318  140.3714  168.8160 C.ar    1  UNL1        0.0876
     15 N         139.1462  139.4565  167.9238 N.ar    1  UNL1       -0.2249
     16 C         138.8790  139.8450  166.4999 C.ar    1  UNL1        0.1850
     17 N         139.3972  141.1483  165.9681 N.ar    1  UNL1       -0.2567
     18 O         138.3282  142.7021  160.2722 O.3     1  UNL1       -0.4754
     19 C         138.4924  141.6918  159.1757 C.3     1  UNL1        0.2068
     20 C         138.0128  140.2846  159.3746 C.3     1  UNL1        0.0646
     21 C         139.0012  139.1824  159.6165 C.3     1  UNL1        0.0759
     22 N         139.1848  138.6297  160.9987 N.3     1  UNL1       -0.2726
     23 C         138.1268  138.5339  162.0577 C.3     1  UNL1        0.0721
     24 C         138.7468  137.9207  163.2782 C.3     1  UNL1        0.0188
     25 C         140.1880  137.6375  162.9735 C.3     1  UNL1        0.0188
     26 C         140.4587  138.0757  161.5647 C.3     1  UNL1        0.0721
@<TRIPOS>BOND
     1     7     8    2
     2     8     9   ar
     3     9    10   ar
     4    10    11   ar
     5    11    12   ar
     6    12    13   ar
     7    13    14   ar
     8    14    15   ar
     9    15    16   ar
    10    16    17   ar
    11    17     1    1
    12     1     2   ar
    13     2     3   ar
    14     3     4   ar
    15     4    18    1
    16    18    19    1
    17    19    20    1
    18    20    21    1
    19    21    22    1
    20    22    23    1
    21    23    24    1
    22    24    25    1
    23    25    26    1
    24     4     5   ar
    25     5     6   ar
    26    17     8   ar
    27     6     1   ar
    28    14     9   ar
    29    26    22    1
@<TRIPOS>MOLECULE
*****
 26 29 0 0 0
SMALL
GASTEIGER

@<TRIPOS>ATOM
      1 C         139.0689  141.6469  164.4136 C.ar    1  UNL1        0.0685
      2 C         139.9209  141.1088  163.3026 C.ar    1  UNL1        0.0208
      3 C         139.6660  141.5363  161.8876 C.ar    1  UNL1        0.0384
      4 C         138.5592  142.5019  161.5837 C.ar    1  UNL1        0.1386
      5 C         137.7071  143.0400  162.6948 C.ar    1  UNL1        0.0384
      6 C         137.9620  142.6125  164.1097 C.ar    1  UNL1        0.0208
      7 O         140.7152  143.3764  166.2298 O.2     1  UNL1       -0.2665
      8 C         140.1469  142.0841  166.7368 C.ar    1  UNL1        0.2673
      9 C         140.4018  141.6566  168.1518 C.ar    1  UNL1        0.0742
     10 C         141.2249  142.5213  169.0599 C.ar    1  UNL1        0.0063
     11 C         141.4797  142.0938  170.4749 C.ar    1  UNL1        0.0003
     12 C         140.9114  140.8015  170.9818 C.ar    1  UNL1        0.0015
     13 C         140.0883  139.9367  170.0738 C.ar    1  UNL1        0.0193
     14 C         139.8335  140.3643  168.6588 C.ar    1  UNL1        0.0876
     15 N         139.0103  139.4995  167.7506 N.ar    1  UNL1       -0.2249
     16 C         138.7555  139.9270  166.3357 C.ar    1  UNL1        0.1850
     17 N         139.3238  141.2193  165.8287 N.ar    1  UNL1       -0.2567
     18 O         138.3043  142.9294  160.1686 O.3     1  UNL1       -0.4754
     19 C         139.4382  142.9941  159.1889 C.3     1  UNL1        0.2068
     20 C         139.8976  144.3204  158.6599 C.3     1  UNL1        0.0646
     21 C         141.0038  145.0612  159.3510 C.3     1  UNL1        0.0759
     22 N         141.1412  144.9831  160.8426 N.3     1  UNL1       -0.2726
     23 C         140.2651  145.6729  161.8460 C.3     1  UNL1        0.0721
     24 C         140.7612  145.3177  163.2163 C.3     1  UNL1        0.0188
     25 C         141.9439  144.4084  163.0598 C.3     1  UNL1        0.0188
     26 C         142.1787  144.2016  161.5928 C.3     1  UNL1        0.0721
@<TRIPOS>BOND
     1     7     8    2
     2     8     9   ar
     3     9    10   ar
     4    10    11   ar
     5    11    12   ar
     6    12    13   ar
     7    13    14   ar
     8    14    15   ar
     9    15    16   ar
    10    16    17   ar
    11    17     1    1
    12     1     2   ar
    13     2     3   ar
    14     3     4   ar
    15     4    18    1
    16    18    19    1
    17    19    20    1
    18    20    21    1
    19    21    22    1
    20    22    23    1
    21    23    24    1
    22    24    25    1
    23    25    26    1
    24     4     5   ar
    25     5     6   ar
    26    17     8   ar
    27     6     1   ar
    28    14     9   ar
    29    26    22    1
@<TRIPOS>MOLECULE
*****
 26 29 0 0 0
SMALL
GASTEIGER

@<TRIPOS>ATOM
      1 C         140.8143  138.9204  164.5652 C.ar    1  UNL1        0.0685
      2 C         139.6790  137.9667  164.3385 C.ar    1  UNL1        0.0208
      3 C         139.1909  137.6995  162.9456 C.ar    1  UNL1        0.0384
      4 C         139.8380  138.3860  161.7794 C.ar    1  UNL1        0.1386
      5 C         140.9732  139.3397  162.0061 C.ar    1  UNL1        0.0384
      6 C         141.4614  139.6069  163.3991 C.ar    1  UNL1        0.0208
      7 O         139.0299  140.3038  166.5407 O.2     1  UNL1       -0.2665
      8 C         140.4104  139.8793  166.9459 C.ar    1  UNL1        0.2673
      9 C         140.8986  140.1465  168.3388 C.ar    1  UNL1        0.0742
     10 C         140.0065  140.8382  169.3265 C.ar    1  UNL1        0.0063
     11 C         140.4947  141.1054  170.7194 C.ar    1  UNL1        0.0003
     12 C         141.8752  140.6810  171.1246 C.ar    1  UNL1        0.0015
     13 C         142.7674  139.9893  170.1369 C.ar    1  UNL1        0.0193
     14 C         142.2791  139.7221  168.7440 C.ar    1  UNL1        0.0876
     15 N         143.1713  139.0304  167.7562 N.ar    1  UNL1       -0.2249
     16 C         142.6830  138.7632  166.3634 C.ar    1  UNL1        0.1850
     17 N         141.3026  139.1876  165.9582 N.ar    1  UNL1       -0.2567
     18 O         139.3497  138.1187  160.3864 O.3     1  UNL1       -0.4754
     19 C         138.8340  139.2469  159.5431 C.3     1  UNL1        0.2068
     20 C         137.9097  140.2670  160.1391 C.3     1  UNL1        0.0646
     21 C         138.4331  141.6190  160.5242 C.3     1  UNL1        0.0759
     22 N         138.1637  142.1648  161.8951 N.3     1  UNL1       -0.2726
     23 C         138.1684  143.6136  162.2840 C.3     1  UNL1        0.0721
     24 C         137.8499  143.7019  163.7471 C.3     1  UNL1        0.0188
     25 C         137.6485  142.3076  164.2626 C.3     1  UNL1        0.0188
     26 C         137.8424  141.3577  163.1180 C.3     1  UNL1        0.0721
@<TRIPOS>BOND
     1     7     8    2
     2     8     9   ar
     3     9    10   ar
     4    10    11   ar
     5    11    12   ar
     6    12    13   ar
     7    13    14   ar
     8    14    15   ar
     9    15    16   ar
    10    16    17   ar
    11    17     1    1
    12     1     2   ar
    13     2     3   ar
    14     3     4   ar
    15     4    18    1
    16    18    19    1
    17    19    20    1
    18    20    21    1
    19    21    22    1
    20    22    23    1
    21    23    24    1
    22    24    25    1
    23    25    26    1
    24     4     5   ar
    25     5     6   ar
    26    17     8   ar
    27     6     1   ar
    28    14     9   ar
    29    26    22    1
@<TRIPOS>MOLECULE
*****
 26 29 0 0 0
SMALL
GASTEIGER

@<TRIPOS>ATOM
      1 C         140.5180  139.2324  164.7029 C.ar    1  UNL1        0.0685
      2 C         140.2007  140.0765  163.5043 C.ar    1  UNL1        0.0208
      3 C         140.4601  139.5479  162.1247 C.ar    1  UNL1        0.0384
      4 C         141.0367  138.1750  161.9438 C.ar    1  UNL1        0.1386
      5 C         141.3540  137.3308  163.1424 C.ar    1  UNL1        0.0384
      6 C         141.0946  137.8595  164.5219 C.ar    1  UNL1        0.0208
      7 O         142.1936  141.4701  165.7914 O.2     1  UNL1       -0.2665
      8 C         141.0964  140.8799  166.6267 C.ar    1  UNL1        0.2673
      9 C         140.8371  141.4085  168.0064 C.ar    1  UNL1        0.0742
     10 C         141.6748  142.5274  168.5506 C.ar    1  UNL1        0.0063
     11 C         141.4155  143.0560  169.9301 C.ar    1  UNL1        0.0003
     12 C         140.3183  142.4657  170.7655 C.ar    1  UNL1        0.0015
     13 C         139.4805  141.3469  170.2213 C.ar    1  UNL1        0.0193
     14 C         139.7399  140.8183  168.8417 C.ar    1  UNL1        0.0876
     15 N         138.9021  139.6994  168.2974 N.ar    1  UNL1       -0.2249
     16 C         139.1615  139.1708  166.9179 C.ar    1  UNL1        0.1850
     17 N         140.2586  139.7610  166.0825 N.ar    1  UNL1       -0.2567
     18 O         141.2961  137.6463  160.5641 O.3     1  UNL1       -0.4754
     19 C         142.2337  138.3733  159.6464 C.3     1  UNL1        0.2068
     20 C         143.5988  138.7673  160.1273 C.3     1  UNL1        0.0646
     21 C         143.8496  140.1655  160.6092 C.3     1  UNL1        0.0759
     22 N         144.4213  140.3963  161.9766 N.3     1  UNL1       -0.2726
     23 C         145.1330  141.6338  162.4373 C.3     1  UNL1        0.0721
     24 C         145.5333  141.4325  163.8688 C.3     1  UNL1        0.0188
     25 C         145.0691  140.0705  164.2928 C.3     1  UNL1        0.0188
     26 C         144.3819  139.4302  163.1233 C.3     1  UNL1        0.0721
@<TRIPOS>BOND
     1     7     8    2
     2     8     9   ar
     3     9    10   ar
     4    10    11   ar
     5    11    12   ar
     6    12    13   ar
     7    13    14   ar
     8    14    15   ar
     9    15    16   ar
    10    16    17   ar
    11    17     1    1
    12     1     2   ar
    13     2     3   ar
    14     3     4   ar
    15     4    18    1
    16    18    19    1
    17    19    20    1
    18    20    21    1
    19    21    22    1
    20    22    23    1
    21    23    24    1
    22    24    25    1
    23    25    26    1
    24     4     5   ar
    25     5     6   ar
    26    17     8   ar
    27     6     1   ar
    28    14     9   ar
    29    26    22    1
@<TRIPOS>MOLECULE
*****
 26 29 0 0 0
SMALL
GASTEIGER

@<TRIPOS>ATOM
      1 C         138.4086  139.9027  164.1943 C.ar    1  UNL1        0.0685
      2 C         137.9430  141.1211  163.4536 C.ar    1  UNL1        0.0208
      3 C         137.6285  141.0342  161.9895 C.ar    1  UNL1        0.0384
      4 C         137.7797  139.7289  161.2662 C.ar    1  UNL1        0.1386
      5 C         138.2453  138.5104  162.0069 C.ar    1  UNL1        0.0384
      6 C         138.5597  138.5974  163.4709 C.ar    1  UNL1        0.0208
      7 O         140.4115  141.9059  165.1821 O.2     1  UNL1       -0.2665
      8 C         139.7245  140.9912  166.1523 C.ar    1  UNL1        0.2673
      9 C         140.0390  141.0781  167.6164 C.ar    1  UNL1        0.0742
     10 C         141.0404  142.0796  168.1103 C.ar    1  UNL1        0.0063
     11 C         141.3548  142.1665  169.5744 C.ar    1  UNL1        0.0003
     12 C         140.6678  141.2518  170.5446 C.ar    1  UNL1        0.0015
     13 C         139.6664  140.2502  170.0507 C.ar    1  UNL1        0.0193
     14 C         139.3519  140.1633  168.5866 C.ar    1  UNL1        0.0876
     15 N         138.3505  139.1617  168.0927 N.ar    1  UNL1       -0.2249
     16 C         138.0360  139.0749  166.6286 C.ar    1  UNL1        0.1850
     17 N         138.7230  139.9896  165.6584 N.ar    1  UNL1       -0.2567
     18 O         137.4652  139.6420  159.8020 O.3     1  UNL1       -0.4754
     19 C         138.4983  140.0358  158.7884 C.3     1  UNL1        0.2068
     20 C         139.8304  139.3466  158.7684 C.3     1  UNL1        0.0646
     21 C         141.0134  139.9814  159.4376 C.3     1  UNL1        0.0759
     22 N         141.4585  139.5014  160.7872 N.3     1  UNL1       -0.2726
     23 C         141.5785  140.3394  162.0255 C.3     1  UNL1        0.0721
     24 C         142.0560  139.4551  163.1391 C.3     1  UNL1        0.0188
     25 C         142.2312  138.0706  162.5889 C.3     1  UNL1        0.0188
     26 C         141.8619  138.0993  161.1354 C.3     1  UNL1        0.0721
@<TRIPOS>BOND
     1     7     8    2
     2     8     9   ar
     3     9    10   ar
     4    10    11   ar
     5    11    12   ar
     6    12    13   ar
     7    13    14   ar
     8    14    15   ar
     9    15    16   ar
    10    16    17   ar
    11    17     1    1
    12     1     2   ar
    13     2     3   ar
    14     3     4   ar
    15     4    18    1
    16    18    19    1
    17    19    20    1
    18    20    21    1
    19    21    22    1
    20    22    23    1
    21    23    24    1
    22    24    25    1
    23    25    26    1
    24     4     5   ar
    25     5     6   ar
    26    17     8   ar
    27     6     1   ar
    28    14     9   ar
    29    26    22    1
@<TRIPOS>MOLECULE
*****
 26 29 0 0 0
SMALL
GASTEIGER

@<TRIPOS>ATOM
      1 C         141.0299  139.2072  164.4145 C.ar    1  UNL1        0.0685
      2 C         140.9783  140.3890  163.4921 C.ar    1  UNL1        0.0208
      3 C         140.6675  140.1924  162.0380 C.ar    1  UNL1        0.0384
      4 C         140.4082  138.8140  161.5061 C.ar    1  UNL1        0.1386
      5 C         140.4597  137.6323  162.4284 C.ar    1  UNL1        0.0384
      6 C         140.7706  137.8289  163.8826 C.ar    1  UNL1        0.0208
      7 O         139.0055  140.4863  166.2216 O.2     1  UNL1       -0.2665
      8 C         140.3286  140.0433  166.7723 C.ar    1  UNL1        0.2673
      9 C         140.6394  140.2399  168.2265 C.ar    1  UNL1        0.0742
     10 C         139.6272  140.8794  169.1301 C.ar    1  UNL1        0.0063
     11 C         139.9381  141.0759  170.5842 C.ar    1  UNL1        0.0003
     12 C         141.2612  140.6330  171.1349 C.ar    1  UNL1        0.0015
     13 C         142.2734  139.9935  170.2313 C.ar    1  UNL1        0.0193
     14 C         141.9625  139.7969  168.7772 C.ar    1  UNL1        0.0876
     15 N         142.9748  139.1574  167.8735 N.ar    1  UNL1       -0.2249
     16 C         142.6639  138.9608  166.4194 C.ar    1  UNL1        0.1850
     17 N         141.3408  139.4038  165.8687 N.ar    1  UNL1       -0.2567
     18 O         140.0973  138.6174  160.0519 O.3     1  UNL1       -0.4754
     19 C         141.2010  138.6573  159.0369 C.3     1  UNL1        0.2068
     20 C         142.6039  138.3122  159.4405 C.3     1  UNL1        0.0646
     21 C         143.5886  139.4038  159.7386 C.3     1  UNL1        0.0759
     22 N         144.0285  139.6519  161.1510 N.3     1  UNL1       -0.2726
     23 C         144.0994  138.6283  162.2452 C.3     1  UNL1        0.0721
     24 C         144.5894  139.3110  163.4877 C.3     1  UNL1        0.0188
     25 C         144.8213  140.7566  163.1614 C.3     1  UNL1        0.0188
     26 C         144.4746  140.9673  161.7173 C.3     1  UNL1        0.0721
@<TRIPOS>BOND
     1     7     8    2
     2     8     9   ar
     3     9    10   ar
     4    10    11   ar
     5    11    12   ar
     6    12    13   ar
     7    13    14   ar
     8    14    15   ar
     9    15    16   ar
    10    16    17   ar
    11    17     1    1
    12     1     2   ar
    13     2     3   ar
    14     3     4   ar
    15     4    18    1
    16    18    19    1
    17    19    20    1
    18    20    21    1
    19    21    22    1
    20    22    23    1
    21    23    24    1
    22    24    25    1
    23    25    26    1
    24     4     5   ar
    25     5     6   ar
    26    17     8   ar
    27     6     1   ar
    28    14     9   ar
    29    26    22    1
@<TRIPOS>MOLECULE
*****
 26 29 0 0 0
SMALL
GASTEIGER

@<TRIPOS>ATOM
      1 C         140.8490  142.7130  164.4427 C.ar    1  UNL1        0.0685
      2 C         140.3238  144.1052  164.2539 C.ar    1  UNL1        0.0208
      3 C         139.7445  144.5154  162.9325 C.ar    1  UNL1        0.0384
      4 C         139.6905  143.5333  161.7999 C.ar    1  UNL1        0.1386
      5 C         140.2157  142.1411  161.9888 C.ar    1  UNL1        0.0384
      6 C         140.7950  141.7309  163.3102 C.ar    1  UNL1        0.0208
      7 O         139.2612  140.9746  166.3020 O.2     1  UNL1       -0.2665
      8 C         140.6344  141.4336  166.6938 C.ar    1  UNL1        0.2673
      9 C         141.2138  141.0233  168.0152 C.ar    1  UNL1        0.0742
     10 C         140.4198  140.1542  168.9448 C.ar    1  UNL1        0.0063
     11 C         140.9992  139.7440  170.2662 C.ar    1  UNL1        0.0003
     12 C         142.3724  140.2030  170.6580 C.ar    1  UNL1        0.0015
     13 C         143.1663  141.0722  169.7284 C.ar    1  UNL1        0.0193
     14 C         142.5870  141.4824  168.4070 C.ar    1  UNL1        0.0876
     15 N         143.3809  142.3516  167.4774 N.ar    1  UNL1       -0.2249
     16 C         142.8016  142.7618  166.1560 C.ar    1  UNL1        0.1850
     17 N         141.4284  142.3028  165.7642 N.ar    1  UNL1       -0.2567
     18 O         139.1111  143.9435  160.4785 O.3     1  UNL1       -0.4754
     19 C         140.0158  144.3968  159.3712 C.3     1  UNL1        0.2068
     20 C         141.4364  144.7742  159.6704 C.3     1  UNL1        0.0646
     21 C         142.5304  143.7597  159.5158 C.3     1  UNL1        0.0759
     22 N         143.3760  143.3828  160.6960 N.3     1  UNL1       -0.2726
     23 C         143.4002  144.0823  162.0227 C.3     1  UNL1        0.0721
     24 C         144.3850  143.3721  162.9034 C.3     1  UNL1        0.0188
     25 C         144.9695  142.2335  162.1210 C.3     1  UNL1        0.0188
     26 C         144.3459  142.2401  160.7568 C.3     1  UNL1        0.0721
@<TRIPOS>BOND
     1     7     8    2
     2     8     9   ar
     3     9    10   ar
     4    10    11   ar
     5    11    12   ar
     6    12    13   ar
     7    13    14   ar
     8    14    15   ar
     9    15    16   ar
    10    16    17   ar
    11    17     1    1
    12     1     2   ar
    13     2     3   ar
    14     3     4   ar
    15     4    18    1
    16    18    19    1
    17    19    20    1
    18    20    21    1
    19    21    22    1
    20    22    23    1
    21    23    24    1
    22    24    25    1
    23    25    26    1
    24     4     5   ar
    25     5     6   ar
    26    17     8   ar
    27     6     1   ar
    28    14     9   ar
    29    26    22    1
@<TRIPOS>MOLECULE
*****
 26 29 0 0 0
SMALL
GASTEIGER

@<TRIPOS>ATOM
      1 C         139.8208  139.3120  165.0378 C.ar    1  UNL1        0.0685
      2 C         138.6695  139.8656  164.2518 C.ar    1  UNL1        0.0208
      3 C         138.4115  139.3798  162.8563 C.ar    1  UNL1        0.0384
      4 C         139.3049  138.3403  162.2469 C.ar    1  UNL1        0.1386
      5 C         140.4562  137.7867  163.0329 C.ar    1  UNL1        0.0384
      6 C         140.7142  138.2725  164.4283 C.ar    1  UNL1        0.0208
      7 O         142.2873  140.9111  165.6374 O.2     1  UNL1       -0.2665
      8 C         141.3121  140.5974  166.7331 C.ar    1  UNL1        0.2673
      9 C         141.5701  141.0832  168.1287 C.ar    1  UNL1        0.0742
     10 C         142.8033  141.8827  168.4284 C.ar    1  UNL1        0.0063
     11 C         143.0613  142.3685  169.8239 C.ar    1  UNL1        0.0003
     12 C         142.0861  142.0548  170.9196 C.ar    1  UNL1        0.0015
     13 C         140.8529  141.2552  170.6198 C.ar    1  UNL1        0.0193
     14 C         140.5949  140.7694  169.2243 C.ar    1  UNL1        0.0876
     15 N         139.3617  139.9698  168.9245 N.ar    1  UNL1       -0.2249
     16 C         139.1037  139.4840  167.5290 C.ar    1  UNL1        0.1850
     17 N         140.0789  139.7978  166.4333 N.ar    1  UNL1       -0.2567
     18 O         139.0468  137.8545  160.8513 O.3     1  UNL1       -0.4754
     19 C         139.4323  138.7053  159.6777 C.3     1  UNL1        0.2068
     20 C         140.5482  139.6993  159.8064 C.3     1  UNL1        0.0646
     21 C         140.2738  141.1627  159.6239 C.3     1  UNL1        0.0759
     22 N         139.7391  141.9737  160.7668 N.3     1  UNL1       -0.2726
     23 C         138.3431  142.5083  160.8915 C.3     1  UNL1        0.0721
     24 C         138.2477  143.2576  162.1875 C.3     1  UNL1        0.0188
     25 C         139.5848  143.1860  162.8637 C.3     1  UNL1        0.0188
     26 C         140.5064  142.3926  161.9857 C.3     1  UNL1        0.0721
@<TRIPOS>BOND
     1     7     8    2
     2     8     9   ar
     3     9    10   ar
     4    10    11   ar
     5    11    12   ar
     6    12    13   ar
     7    13    14   ar
     8    14    15   ar
     9    15    16   ar
    10    16    17   ar
    11    17     1    1
    12     1     2   ar
    13     2     3   ar
    14     3     4   ar
    15     4    18    1
    16    18    19    1
    17    19    20    1
    18    20    21    1
    19    21    22    1
    20    22    23    1
    21    23    24    1
    22    24    25    1
    23    25    26    1
    24     4     5   ar
    25     5     6   ar
    26    17     8   ar
    27     6     1   ar
    28    14     9   ar
    29    26    22    1
@<TRIPOS>MOLECULE
*****
 26 29 0 0 0
SMALL
GASTEIGER

@<TRIPOS>ATOM
      1 C         138.5867  139.8857  164.2590 C.ar    1  UNL1        0.0685
      2 C         137.7006  140.8832  163.5736 C.ar    1  UNL1        0.0208
      3 C         137.4381  140.7663  162.1014 C.ar    1  UNL1        0.0384
      4 C         138.0618  139.6519  161.3146 C.ar    1  UNL1        0.1386
      5 C         138.9480  138.6544  161.9999 C.ar    1  UNL1        0.0384
      6 C         139.2104  138.7713  163.4721 C.ar    1  UNL1        0.0208
      7 O         140.4895  141.9668  165.2829 O.2     1  UNL1       -0.2665
      8 C         139.8005  141.0431  166.2432 C.ar    1  UNL1        0.2673
      9 C         140.0630  141.1600  167.7155 C.ar    1  UNL1        0.0742
     10 C         141.0144  142.2005  168.2274 C.ar    1  UNL1        0.0063
     11 C         141.2768  142.3173  169.6996 C.ar    1  UNL1        0.0003
     12 C         140.5878  141.3936  170.6599 C.ar    1  UNL1        0.0015
     13 C         139.6364  140.3531  170.1479 C.ar    1  UNL1        0.0193
     14 C         139.3740  140.2363  168.6757 C.ar    1  UNL1        0.0876
     15 N         138.4226  139.1957  168.1637 N.ar    1  UNL1       -0.2249
     16 C         138.1602  139.0789  166.6915 C.ar    1  UNL1        0.1850
     17 N         138.8492  140.0026  165.7312 N.ar    1  UNL1       -0.2567
     18 O         137.7994  139.5350  159.8423 O.3     1  UNL1       -0.4754
     19 C         138.2484  140.6224  158.9118 C.3     1  UNL1        0.2068
     20 C         139.5809  141.2805  159.1149 C.3     1  UNL1        0.0646
     21 C         139.7439  142.7456  158.8373 C.3     1  UNL1        0.0759
     22 N         139.8645  143.7157  159.9750 N.3     1  UNL1       -0.2726
     23 C         140.2126  145.1702  159.8604 C.3     1  UNL1        0.0721
     24 C         140.2214  145.7550  161.2417 C.3     1  UNL1        0.0188
     25 C         139.8787  144.6619  162.2100 C.3     1  UNL1        0.0188
     26 C         139.6581  143.4015  161.4272 C.3     1  UNL1        0.0721
@<TRIPOS>BOND
     1     7     8    2
     2     8     9   ar
     3     9    10   ar
     4    10    11   ar
     5    11    12   ar
     6    12    13   ar
     7    13    14   ar
     8    14    15   ar
     9    15    16   ar
    10    16    17   ar
    11    17     1    1
    12     1     2   ar
    13     2     3   ar
    14     3     4   ar
    15     4    18    1
    16    18    19    1
    17    19    20    1
    18    20    21    1
    19    21    22    1
    20    22    23    1
    21    23    24    1
    22    24    25    1
    23    25    26    1
    24     4     5   ar
    25     5     6   ar
    26    17     8   ar
    27     6     1   ar
    28    14     9   ar
    29    26    22    1
