@<TRIPOS>MOLECULE
*****
 60 66 0 0 0
SMALL
GASTEIGER

@<TRIPOS>ATOM
      1 C         141.8156  142.2349  167.0660 C.ar    1  UNL1        0.1090
      2 C         143.1109  142.3979  167.8048 C.ar    1  UNL1        0.0405
      3 C         143.2235  141.9449  169.2303 C.ar    1  UNL1        0.1596
      4 F         144.5188  142.1079  169.9691 F       1  UNL1       -0.2025
      5 C         142.0407  141.3289  169.9171 C.ar    1  UNL1        0.1316
      6 N         140.7455  141.1659  169.1784 N.ar    1  UNL1       -0.2073
      7 C         140.6329  141.6189  167.7529 C.ar    1  UNL1        0.2341
      8 N         140.4528  143.3672  165.1660 N.am    1  UNL1       -0.3024
      9 C         141.7031  142.6879  165.6405 C.2     1  UNL1        0.2504
     10 O         142.8408  142.4616  164.6896 O.2     1  UNL1       -0.2700
     11 H         139.7060  143.5157  165.7901 H       1  UNL1        0.1497
     12 C         140.1150  144.7261  160.8894 C.3     1  UNL1        0.0720
     13 C         139.6747  143.3449  161.2744 C.3     1  UNL1        0.0213
     14 C         139.7873  142.8919  162.6999 C.3     1  UNL1        0.0213
     15 C         140.3402  143.8202  163.7404 C.3     1  UNL1        0.0720
     16 C         140.7804  145.2015  163.3554 C.3     1  UNL1        0.0213
     17 C         140.6678  145.6544  161.9299 C.3     1  UNL1        0.0213
     18 C         141.1977  145.1152  158.5599 C.2     1  UNL1        0.2487
     19 O         142.5056  144.5982  159.0815 O.2     1  UNL1       -0.2700
     20 N         140.0024  145.1792  159.4639 N.am    1  UNL1       -0.3024
     21 H         139.1440  145.5185  159.1215 H       1  UNL1        0.1497
     22 C         138.8564  147.9985  154.9261 C.3     1  UNL1        0.0310
     23 C         139.9144  147.0099  155.3175 C.ar    1  UNL1       -0.0215
     24 C         140.8599  146.4743  154.2834 C.ar    1  UNL1       -0.0011
     25 C         141.9179  145.4857  154.6749 C.ar    1  UNL1        0.0364
     26 C         142.0305  145.0327  156.1003 C.ar    1  UNL1        0.1379
     27 O         143.0886  144.0441  156.4918 O.3     1  UNL1       -0.5054
     28 C         141.0851  145.5682  157.1344 C.ar    1  UNL1        0.0866
     29 C         140.0270  146.5568  156.7429 C.ar    1  UNL1        0.0033
     30 H         143.6792  143.7095  155.8458 H       1  UNL1        0.2922
     31 O         139.3376  141.4558  167.0142 O.3     1  UNL1       -0.4360
     32 C         139.0639  140.1947  166.2496 C.ar    1  UNL1        0.1472
     33 C         138.5686  138.9747  166.9679 C.ar    1  UNL1        0.0376
     34 C         138.2948  137.7135  166.2033 C.ar    1  UNL1        0.0031
     35 C         138.5163  137.6725  164.7204 C.ar    1  UNL1        0.0002
     36 C         139.0115  138.8926  164.0020 C.ar    1  UNL1        0.0028
     37 C         139.2853  140.1537  164.7666 C.ar    1  UNL1        0.0375
     38 C         139.2330  138.8516  162.5190 C.ar    1  UNL1       -0.0026
     39 C         138.2714  139.5418  161.5977 C.ar    1  UNL1       -0.0005
     40 C         138.4928  139.5008  160.1147 C.ar    1  UNL1       -0.0029
     41 C         139.6759  138.7696  159.5530 C.ar    1  UNL1       -0.0064
     42 C         140.6376  138.0794  160.4743 C.ar    1  UNL1       -0.0058
     43 C         140.4162  138.1204  161.9573 C.ar    1  UNL1       -0.0064
     44 C         139.8975  138.7286  158.0700 C.3     1  UNL1        0.0992
     45 N         141.2920  138.6607  157.5216 N.3     1  UNL1       -0.2666
     46 C         142.2224  139.8249  157.6920 C.3     1  UNL1        0.0882
     47 C         143.6169  139.7570  157.1436 C.3     1  UNL1        0.0702
     48 C         144.5473  140.9211  157.3139 C.3     1  UNL1        0.0186
     49 N         144.0809  138.5249  156.4247 N.3     1  UNL1       -0.2974
     50 C         143.1505  137.3608  156.2544 C.3     1  UNL1        0.0702
     51 C         143.6145  136.1287  155.5355 C.3     1  UNL1        0.0186
     52 C         141.7560  137.4287  156.8028 C.3     1  UNL1        0.0882
     53 H         144.8964  138.1786  156.9303 H       1  UNL1        0.1232
     54 C         141.3778  137.4301  162.8786 C.3     1  UNL1        0.0993
     55 N         142.4877  138.2066  163.5230 N.3     1  UNL1       -0.2646
     56 C         143.5296  138.8716  162.6730 C.3     1  UNL1        0.1049
     57 C         144.6394  139.6480  163.3174 C.3     1  UNL1        0.1595
     58 O         144.7074  139.7596  164.8117 O.3     1  UNL1       -0.3508
     59 C         143.6656  139.0947  165.6616 C.3     1  UNL1        0.1595
     60 C         142.5557  138.3181  165.0173 C.3     1  UNL1        0.1049
@<TRIPOS>BOND
     1    22    23    1
     2    23    24   ar
     3    24    25   ar
     4    25    26   ar
     5    26    27    1
     6    26    28   ar
     7    28    18    1
     8    18    19    2
     9    18    20   am
    10    12    20    1
    11    12    13    1
    12    13    14    1
    13    14    15    1
    14    15     8    1
    15     8     9   am
    16     9    10    2
    17     9     1    1
    18     1     2   ar
    19     2     3   ar
    20     3     4    1
    21     3     5   ar
    22     5     6   ar
    23     6     7   ar
    24     7    31    1
    25    31    32    1
    26    32    33   ar
    27    33    34   ar
    28    34    35   ar
    29    35    36   ar
    30    36    38    1
    31    38    39   ar
    32    39    40   ar
    33    40    41   ar
    34    41    44    1
    35    44    45    1
    36    45    46    1
    37    46    47    1
    38    47    48    1
    39    47    49    1
    40    49    50    1
    41    50    51    1
    42    50    52    1
    43    41    42   ar
    44    42    43   ar
    45    43    54    1
    46    54    55    1
    47    55    56    1
    48    56    57    1
    49    57    58    1
    50    58    59    1
    51    59    60    1
    52    36    37   ar
    53    15    16    1
    54    16    17    1
    55    28    29   ar
    56    29    23   ar
    57    17    12    1
    58     7     1   ar
    59    37    32   ar
    60    43    38   ar
    61    60    55    1
    62    52    45    1
    63    27    30    1
    64    20    21    1
    65     8    11    1
    66    49    53    1
@<TRIPOS>MOLECULE
*****
 60 66 0 0 0
SMALL
GASTEIGER

@<TRIPOS>ATOM
      1 C         141.9264  142.1627  167.5186 C.ar    1  UNL1        0.1090
      2 C         143.2605  142.4220  168.1536 C.ar    1  UNL1        0.0405
      3 C         143.5045  142.0184  169.5774 C.ar    1  UNL1        0.1596
      4 F         144.8386  142.2777  170.2124 F       1  UNL1       -0.2025
      5 C         142.4146  141.3554  170.3664 C.ar    1  UNL1        0.1316
      6 N         141.0806  141.0961  169.7316 N.ar    1  UNL1       -0.2073
      7 C         140.8364  141.4997  168.3076 C.ar    1  UNL1        0.2341
      8 N         142.6658  142.1855  165.0282 N.am    1  UNL1       -0.3024
      9 C         141.6823  142.5663  166.0948 C.2     1  UNL1        0.2504
     10 O         140.4547  143.3508  165.7375 O.2     1  UNL1       -0.2700
     11 H         143.4715  141.6706  165.2627 H       1  UNL1        0.1497
     12 C         141.9337  143.3963  160.7564 C.3     1  UNL1        0.0720
     13 C         141.8045  141.9576  161.1608 C.3     1  UNL1        0.0213
     14 C         142.0486  141.5541  162.5847 C.3     1  UNL1        0.0213
     15 C         142.4218  142.5891  163.6042 C.3     1  UNL1        0.0720
     16 C         142.5510  144.0278  163.1998 C.3     1  UNL1        0.0213
     17 C         142.3069  144.4313  161.7759 C.3     1  UNL1        0.0213
     18 C         140.5883  144.7639  159.0044 C.2     1  UNL1        0.2487
     19 O         139.7310  145.3244  160.1002 O.2     1  UNL1       -0.2700
     20 N         141.6897  143.7999  159.3325 N.am    1  UNL1       -0.3024
     21 H         142.2524  143.4321  158.6132 H       1  UNL1        0.1497
     22 C         137.5734  144.7349  154.7725 C.3     1  UNL1        0.0310
     23 C         138.8368  145.1530  155.4645 C.ar    1  UNL1       -0.0215
     24 C         139.8561  145.9748  154.7327 C.ar    1  UNL1       -0.0011
     25 C         141.1196  146.3929  155.4247 C.ar    1  UNL1        0.0364
     26 C         141.3636  145.9893  156.8486 C.ar    1  UNL1        0.1379
     27 O         142.6271  146.4074  157.5406 O.3     1  UNL1       -0.5054
     28 C         140.3443  145.1676  157.5804 C.ar    1  UNL1        0.0866
     29 C         139.0809  144.7494  156.8884 C.ar    1  UNL1        0.0033
     30 H         143.2638  146.9208  157.0835 H       1  UNL1        0.2922
     31 O         139.5024  141.2404  167.6728 O.3     1  UNL1       -0.4360
     32 C         139.2928  140.0073  166.8448 C.ar    1  UNL1        0.1472
     33 C         138.2702  138.9910  167.2586 C.ar    1  UNL1        0.0376
     34 C         138.0606  137.7579  166.4307 C.ar    1  UNL1        0.0031
     35 C         138.8736  137.5411  165.1889 C.ar    1  UNL1        0.0002
     36 C         139.8962  138.5574  164.7752 C.ar    1  UNL1        0.0028
     37 C         140.1058  139.7905  165.6031 C.ar    1  UNL1        0.0375
     38 C         140.7093  138.3406  163.5334 C.ar    1  UNL1       -0.0026
     39 C         142.1471  137.9269  163.6411 C.ar    1  UNL1       -0.0005
     40 C         142.9602  137.7101  162.3994 C.ar    1  UNL1       -0.0029
     41 C         142.3355  137.9071  161.0500 C.ar    1  UNL1       -0.0064
     42 C         140.8977  138.3208  160.9423 C.ar    1  UNL1       -0.0058
     43 C         140.0847  138.5376  162.1840 C.ar    1  UNL1       -0.0064
     44 C         143.1486  137.6903  159.8082 C.3     1  UNL1        0.0992
     45 N         143.1468  138.7234  158.7207 N.3     1  UNL1       -0.2666
     46 C         142.3881  138.4743  157.4509 C.3     1  UNL1        0.0882
     47 C         142.3863  139.5075  156.3634 C.3     1  UNL1        0.0702
     48 C         141.6277  139.2584  155.0936 C.3     1  UNL1        0.0186
     49 N         143.1431  140.7897  156.5457 N.3     1  UNL1       -0.2974
     50 C         143.9018  141.0387  157.8155 C.3     1  UNL1        0.0702
     51 C         144.6586  142.3209  157.9979 C.3     1  UNL1        0.0186
     52 C         143.9036  140.0056  158.9030 C.3     1  UNL1        0.0882
     53 H         142.4660  141.5469  156.4540 H       1  UNL1        0.1232
     54 C         138.6469  138.9513  162.0763 C.3     1  UNL1        0.0993
     55 N         138.2937  140.3992  161.9065 N.3     1  UNL1       -0.2646
     56 C         137.8596  141.2093  163.0920 C.3     1  UNL1        0.1049
     57 C         137.5065  142.6572  162.9223 C.3     1  UNL1        0.1595
     58 O         137.5875  143.2950  161.5671 O.3     1  UNL1       -0.3508
     59 C         138.0216  142.4850  160.3816 C.3     1  UNL1        0.1595
     60 C         138.3748  141.0370  160.5513 C.3     1  UNL1        0.1049
@<TRIPOS>BOND
     1    22    23    1
     2    23    24   ar
     3    24    25   ar
     4    25    26   ar
     5    26    27    1
     6    26    28   ar
     7    28    18    1
     8    18    19    2
     9    18    20   am
    10    12    20    1
    11    12    13    1
    12    13    14    1
    13    14    15    1
    14    15     8    1
    15     8     9   am
    16     9    10    2
    17     9     1    1
    18     1     2   ar
    19     2     3   ar
    20     3     4    1
    21     3     5   ar
    22     5     6   ar
    23     6     7   ar
    24     7    31    1
    25    31    32    1
    26    32    33   ar
    27    33    34   ar
    28    34    35   ar
    29    35    36   ar
    30    36    38    1
    31    38    39   ar
    32    39    40   ar
    33    40    41   ar
    34    41    44    1
    35    44    45    1
    36    45    46    1
    37    46    47    1
    38    47    48    1
    39    47    49    1
    40    49    50    1
    41    50    51    1
    42    50    52    1
    43    41    42   ar
    44    42    43   ar
    45    43    54    1
    46    54    55    1
    47    55    56    1
    48    56    57    1
    49    57    58    1
    50    58    59    1
    51    59    60    1
    52    36    37   ar
    53    15    16    1
    54    16    17    1
    55    28    29   ar
    56    29    23   ar
    57    17    12    1
    58     7     1   ar
    59    37    32   ar
    60    43    38   ar
    61    60    55    1
    62    52    45    1
    63    27    30    1
    64    20    21    1
    65     8    11    1
    66    49    53    1
@<TRIPOS>MOLECULE
*****
 60 66 0 0 0
SMALL
GASTEIGER

@<TRIPOS>ATOM
      1 C         141.6615  142.2533  166.6351 C.ar    1  UNL1        0.1090
      2 C         142.9117  142.4832  167.4315 C.ar    1  UNL1        0.0405
      3 C         142.9909  142.0162  168.8547 C.ar    1  UNL1        0.1596
      4 F         144.2412  142.2461  169.6510 F       1  UNL1       -0.2025
      5 C         141.8199  141.3193  169.4817 C.ar    1  UNL1        0.1316
      6 N         140.5697  141.0894  168.6854 N.ar    1  UNL1       -0.2073
      7 C         140.4905  141.5564  167.2621 C.ar    1  UNL1        0.2341
      8 N         140.3466  143.4118  164.7172 N.am    1  UNL1       -0.3024
      9 C         141.5822  142.7203  165.2119 C.2     1  UNL1        0.2504
     10 O         142.7387  142.4957  164.2834 O.2     1  UNL1       -0.2700
     11 H         139.5876  143.5593  165.3267 H       1  UNL1        0.1497
     12 C         140.1088  144.8130  160.4475 C.3     1  UNL1        0.0720
     13 C         140.3178  145.8060  161.5522 C.3     1  UNL1        0.0213
     14 C         140.3970  145.3389  162.9754 C.3     1  UNL1        0.0213
     15 C         140.2673  143.8789  163.2939 C.3     1  UNL1        0.0720
     16 C         140.0583  142.8859  162.1893 C.3     1  UNL1        0.0213
     17 C         139.9791  143.3530  160.7661 C.3     1  UNL1        0.0213
     18 C         141.2567  145.2688  158.1618 C.2     1  UNL1        0.2487
     19 O         142.5632  144.7906  158.7225 O.2     1  UNL1       -0.2700
     20 N         140.0295  145.2800  159.0243 N.am    1  UNL1       -0.3024
     21 H         139.1721  145.5939  158.6562 H       1  UNL1        0.1497
     22 C         139.1986  148.3989  154.5609 C.3     1  UNL1        0.0310
     23 C         140.1484  147.3009  154.9381 C.ar    1  UNL1       -0.0215
     24 C         141.0188  146.6700  153.8921 C.ar    1  UNL1       -0.0011
     25 C         141.9686  145.5719  154.2693 C.ar    1  UNL1        0.0364
     26 C         142.0479  145.1049  155.6925 C.ar    1  UNL1        0.1379
     27 O         142.9977  144.0069  156.0698 O.3     1  UNL1       -0.5054
     28 C         141.1774  145.7359  156.7385 C.ar    1  UNL1        0.0866
     29 C         140.2277  146.8339  156.3613 C.ar    1  UNL1        0.0033
     30 H         143.5415  143.6127  155.4164 H       1  UNL1        0.2922
     31 O         139.2402  141.3265  166.4659 O.3     1  UNL1       -0.4360
     32 C         139.1397  140.1402  165.5533 C.ar    1  UNL1        0.1472
     33 C         139.0681  138.7563  166.1273 C.ar    1  UNL1        0.0376
     34 C         138.9676  137.5701  165.2148 C.ar    1  UNL1        0.0031
     35 C         138.9387  137.7678  163.7282 C.ar    1  UNL1        0.0002
     36 C         139.0104  139.1517  163.1541 C.ar    1  UNL1        0.0028
     37 C         139.1109  140.3379  164.0667 C.ar    1  UNL1        0.0375
     38 C         138.9815  139.3494  161.6675 C.ar    1  UNL1       -0.0026
     39 C         137.8672  140.1305  161.0363 C.ar    1  UNL1       -0.0005
     40 C         137.8383  140.3282  159.5497 C.ar    1  UNL1       -0.0029
     41 C         138.9237  139.7450  158.6943 C.ar    1  UNL1       -0.0064
     42 C         140.0379  138.9640  159.3255 C.ar    1  UNL1       -0.0058
     43 C         140.0668  138.7662  160.8121 C.ar    1  UNL1       -0.0064
     44 C         138.8948  139.9427  157.2076 C.3     1  UNL1        0.0992
     45 N         137.8817  140.8624  156.5929 N.3     1  UNL1       -0.2666
     46 C         136.4994  140.3627  156.2933 C.3     1  UNL1        0.0882
     47 C         135.4863  141.2824  155.6786 C.3     1  UNL1        0.0702
     48 C         134.1041  140.7828  155.3791 C.3     1  UNL1        0.0186
     49 N         135.8556  142.7017  155.3635 N.3     1  UNL1       -0.2974
     50 C         137.2378  143.2013  155.6630 C.3     1  UNL1        0.0702
     51 C         137.6070  144.6207  155.3478 C.3     1  UNL1        0.0186
     52 C         138.2509  142.2817  156.2777 C.3     1  UNL1        0.0882
     53 H         135.2088  143.2963  155.8818 H       1  UNL1        0.1232
     54 C         141.1811  137.9852  161.4433 C.3     1  UNL1        0.0993
     55 N         142.3581  138.7023  162.0351 N.3     1  UNL1       -0.2646
     56 C         143.1826  139.6212  161.1830 C.3     1  UNL1        0.1049
     57 C         144.3596  140.3383  161.7748 C.3     1  UNL1        0.1595
     58 O         144.7123  140.1365  163.2188 O.3     1  UNL1       -0.3508
     59 C         143.8879  139.2177  164.0709 C.3     1  UNL1        0.1595
     60 C         142.7108  138.5005  163.4790 C.3     1  UNL1        0.1049
@<TRIPOS>BOND
     1    22    23    1
     2    23    24   ar
     3    24    25   ar
     4    25    26   ar
     5    26    27    1
     6    26    28   ar
     7    28    18    1
     8    18    19    2
     9    18    20   am
    10    12    20    1
    11    12    13    1
    12    13    14    1
    13    14    15    1
    14    15     8    1
    15     8     9   am
    16     9    10    2
    17     9     1    1
    18     1     2   ar
    19     2     3   ar
    20     3     4    1
    21     3     5   ar
    22     5     6   ar
    23     6     7   ar
    24     7    31    1
    25    31    32    1
    26    32    33   ar
    27    33    34   ar
    28    34    35   ar
    29    35    36   ar
    30    36    38    1
    31    38    39   ar
    32    39    40   ar
    33    40    41   ar
    34    41    44    1
    35    44    45    1
    36    45    46    1
    37    46    47    1
    38    47    48    1
    39    47    49    1
    40    49    50    1
    41    50    51    1
    42    50    52    1
    43    41    42   ar
    44    42    43   ar
    45    43    54    1
    46    54    55    1
    47    55    56    1
    48    56    57    1
    49    57    58    1
    50    58    59    1
    51    59    60    1
    52    36    37   ar
    53    15    16    1
    54    16    17    1
    55    28    29   ar
    56    29    23   ar
    57    17    12    1
    58     7     1   ar
    59    37    32   ar
    60    43    38   ar
    61    60    55    1
    62    52    45    1
    63    27    30    1
    64    20    21    1
    65     8    11    1
    66    49    53    1
@<TRIPOS>MOLECULE
*****
 60 66 0 0 0
SMALL
GASTEIGER

@<TRIPOS>ATOM
      1 C         142.8494  141.1813  166.5695 C.ar    1  UNL1        0.1090
      2 C         142.8293  142.0378  167.8008 C.ar    1  UNL1        0.0405
      3 C         142.7930  141.3997  169.1578 C.ar    1  UNL1        0.1596
      4 F         142.7729  142.2563  170.3891 F       1  UNL1       -0.2025
      5 C         142.7766  139.9051  169.2835 C.ar    1  UNL1        0.1316
      6 N         142.7967  139.0486  168.0523 N.ar    1  UNL1       -0.2073
      7 C         142.8330  139.6867  166.6952 C.ar    1  UNL1        0.2341
      8 N         141.6267  142.3642  164.6059 N.am    1  UNL1       -0.3024
      9 C         142.8858  141.8194  165.2125 C.2     1  UNL1        0.2504
     10 O         144.1812  141.9127  164.4621 O.2     1  UNL1       -0.2700
     11 H         140.7765  142.3030  165.0985 H       1  UNL1        0.1497
     12 C         141.7358  144.2787  160.5350 C.3     1  UNL1        0.0720
     13 C         141.6804  145.1351  161.7652 C.3     1  UNL1        0.0213
     14 C         141.6440  144.4969  163.1222 C.3     1  UNL1        0.0213
     15 C         141.6631  143.0024  163.2489 C.3     1  UNL1        0.0720
     16 C         141.7185  142.1460  162.0186 C.3     1  UNL1        0.0213
     17 C         141.7548  142.7842  160.6617 C.3     1  UNL1        0.0213
     18 C         140.5393  144.9333  158.3236 C.2     1  UNL1        0.2487
     19 O         139.2701  144.3116  158.8262 O.2     1  UNL1       -0.2700
     20 N         141.7721  144.9169  159.1779 N.am    1  UNL1       -0.3024
     21 H         142.6051  145.3249  158.8480 H       1  UNL1        0.1497
     22 C         138.9887  148.6734  155.0667 C.3     1  UNL1        0.0310
     23 C         139.8003  147.4415  155.3381 C.ar    1  UNL1       -0.0215
     24 C         140.6483  146.8477  154.2526 C.ar    1  UNL1       -0.0011
     25 C         141.4599  145.6159  154.5241 C.ar    1  UNL1        0.0364
     26 C         141.4236  144.9777  155.8810 C.ar    1  UNL1        0.1379
     27 O         142.2353  143.7458  156.1525 O.3     1  UNL1       -0.5054
     28 C         140.5757  145.5714  156.9665 C.ar    1  UNL1        0.0866
     29 C         139.7640  146.8033  156.6951 C.ar    1  UNL1        0.0033
     30 H         142.7650  143.3749  155.4744 H       1  UNL1        0.2922
     31 O         142.8531  138.8302  165.4640 O.3     1  UNL1       -0.4360
     32 C         141.5788  138.5514  164.7235 C.ar    1  UNL1        0.1472
     33 C         140.4476  137.8497  165.4150 C.ar    1  UNL1        0.0376
     34 C         139.1733  137.5709  164.6745 C.ar    1  UNL1        0.0031
     35 C         139.0301  137.9937  163.2425 C.ar    1  UNL1        0.0002
     36 C         140.1612  138.6954  162.5510 C.ar    1  UNL1        0.0028
     37 C         141.4356  138.9742  163.2915 C.ar    1  UNL1        0.0375
     38 C         140.0181  139.1182  161.1189 C.ar    1  UNL1       -0.0026
     39 C         141.0686  138.7409  160.1169 C.ar    1  UNL1       -0.0005
     40 C         140.9255  139.1638  158.6849 C.ar    1  UNL1       -0.0029
     41 C         139.7319  139.9639  158.2549 C.ar    1  UNL1       -0.0064
     42 C         138.6813  140.3411  159.2569 C.ar    1  UNL1       -0.0058
     43 C         138.8244  139.9183  160.6889 C.ar    1  UNL1       -0.0064
     44 C         139.5887  140.3867  156.8228 C.3     1  UNL1        0.0992
     45 N         138.3662  141.1347  156.3803 N.3     1  UNL1       -0.2666
     46 C         138.4857  142.5518  155.9031 C.3     1  UNL1        0.0882
     47 C         137.2632  143.2998  155.4606 C.3     1  UNL1        0.0702
     48 C         137.3827  144.7168  154.9834 C.3     1  UNL1        0.0186
     49 N         135.9210  142.6308  155.4954 N.3     1  UNL1       -0.2974
     50 C         135.8015  141.2138  155.9726 C.3     1  UNL1        0.0702
     51 C         134.4594  140.5447  156.0074 C.3     1  UNL1        0.0186
     52 C         137.0241  140.4658  156.4151 C.3     1  UNL1        0.0882
     53 H         135.5564  142.6525  154.5430 H       1  UNL1        0.1232
     54 C         137.7739  140.2956  161.6909 C.3     1  UNL1        0.0993
     55 N         137.9140  141.5609  162.4842 N.3     1  UNL1       -0.2646
     56 C         137.9859  142.8835  161.7801 C.3     1  UNL1        0.1049
     57 C         138.1261  144.1488  162.5734 C.3     1  UNL1        0.1595
     58 O         138.1944  144.0916  164.0708 O.3     1  UNL1       -0.3508
     59 C         138.1225  142.7691  164.7748 C.3     1  UNL1        0.1595
     60 C         137.9823  141.5037  163.9815 C.3     1  UNL1        0.1049
@<TRIPOS>BOND
     1    22    23    1
     2    23    24   ar
     3    24    25   ar
     4    25    26   ar
     5    26    27    1
     6    26    28   ar
     7    28    18    1
     8    18    19    2
     9    18    20   am
    10    12    20    1
    11    12    13    1
    12    13    14    1
    13    14    15    1
    14    15     8    1
    15     8     9   am
    16     9    10    2
    17     9     1    1
    18     1     2   ar
    19     2     3   ar
    20     3     4    1
    21     3     5   ar
    22     5     6   ar
    23     6     7   ar
    24     7    31    1
    25    31    32    1
    26    32    33   ar
    27    33    34   ar
    28    34    35   ar
    29    35    36   ar
    30    36    38    1
    31    38    39   ar
    32    39    40   ar
    33    40    41   ar
    34    41    44    1
    35    44    45    1
    36    45    46    1
    37    46    47    1
    38    47    48    1
    39    47    49    1
    40    49    50    1
    41    50    51    1
    42    50    52    1
    43    41    42   ar
    44    42    43   ar
    45    43    54    1
    46    54    55    1
    47    55    56    1
    48    56    57    1
    49    57    58    1
    50    58    59    1
    51    59    60    1
    52    36    37   ar
    53    15    16    1
    54    16    17    1
    55    28    29   ar
    56    29    23   ar
    57    17    12    1
    58     7     1   ar
    59    37    32   ar
    60    43    38   ar
    61    60    55    1
    62    52    45    1
    63    27    30    1
    64    20    21    1
    65     8    11    1
    66    49    53    1
@<TRIPOS>MOLECULE
*****
 60 66 0 0 0
SMALL
GASTEIGER

@<TRIPOS>ATOM
      1 C         142.5387  140.9895  165.9364 C.ar    1  UNL1        0.1090
      2 C         142.8108  139.8070  166.8183 C.ar    1  UNL1        0.0405
      3 C         142.4099  139.8410  168.2633 C.ar    1  UNL1        0.1596
      4 F         142.6820  138.6585  169.1452 F       1  UNL1       -0.2025
      5 C         141.7369  141.0575  168.8265 C.ar    1  UNL1        0.1316
      6 N         141.4649  142.2400  167.9447 N.ar    1  UNL1       -0.2073
      7 C         141.8657  142.2060  166.4996 C.ar    1  UNL1        0.2341
      8 N         142.2523  140.0169  163.5444 N.am    1  UNL1       -0.3024
      9 C         142.9395  140.9555  164.4914 C.2     1  UNL1        0.2504
     10 O         144.0276  141.8599  163.9934 O.2     1  UNL1       -0.2700
     11 H         141.5382  139.4233  163.8712 H       1  UNL1        0.1497
     12 C         143.4549  139.9146  159.2092 C.3     1  UNL1        0.0720
     13 C         144.2101  139.0990  160.2165 C.3     1  UNL1        0.0213
     14 C         143.8092  139.1331  161.6615 C.3     1  UNL1        0.0213
     15 C         142.6532  139.9829  162.0993 C.3     1  UNL1        0.0720
     16 C         141.8981  140.7985  161.0920 C.3     1  UNL1        0.0213
     17 C         142.2989  140.7644  159.6470 C.3     1  UNL1        0.0213
     18 C         144.6842  140.9910  157.1892 C.2     1  UNL1        0.2487
     19 O         145.1118  142.1356  158.0594 O.2     1  UNL1       -0.2700
     20 N         143.8558  139.8806  157.7641 N.am    1  UNL1       -0.3024
     21 H         143.5751  139.1294  157.1930 H       1  UNL1        0.1497
     22 C         146.0346  143.4827  152.8340 C.3     1  UNL1        0.0310
     23 C         145.7603  142.2028  153.5666 C.ar    1  UNL1       -0.0215
     24 C         145.8867  140.8889  152.8541 C.ar    1  UNL1       -0.0011
     25 C         145.6124  139.6090  153.5867 C.ar    1  UNL1        0.0364
     26 C         145.2115  139.6431  155.0317 C.ar    1  UNL1        0.1379
     27 O         144.9371  138.3632  155.7642 O.3     1  UNL1       -0.5054
     28 C         145.0851  140.9570  155.7441 C.ar    1  UNL1        0.0866
     29 C         145.3594  142.2368  155.0116 C.ar    1  UNL1        0.0033
     30 H         145.0162  137.5424  155.3192 H       1  UNL1        0.2922
     31 O         141.5936  143.3885  165.6178 O.3     1  UNL1       -0.4360
     32 C         140.2896  143.4926  164.8839 C.ar    1  UNL1        0.1472
     33 C         139.1215  144.1819  165.5244 C.ar    1  UNL1        0.0376
     34 C         137.8174  144.2860  164.7906 C.ar    1  UNL1        0.0031
     35 C         137.6814  143.7008  163.4162 C.ar    1  UNL1        0.0002
     36 C         138.8495  143.0114  162.7757 C.ar    1  UNL1        0.0028
     37 C         140.1536  142.9073  163.5096 C.ar    1  UNL1        0.0375
     38 C         138.7135  142.4261  161.4013 C.ar    1  UNL1       -0.0026
     39 C         139.2134  143.1872  160.2092 C.ar    1  UNL1       -0.0005
     40 C         139.0775  142.6019  158.8348 C.ar    1  UNL1       -0.0029
     41 C         138.4417  141.2557  158.6525 C.ar    1  UNL1       -0.0064
     42 C         137.9418  140.4946  159.8445 C.ar    1  UNL1       -0.0058
     43 C         138.0777  141.0799  161.2189 C.ar    1  UNL1       -0.0064
     44 C         138.3057  140.6704  157.2780 C.3     1  UNL1        0.0992
     45 N         139.5022  140.0797  156.5927 N.3     1  UNL1       -0.2666
     46 C         140.0289  138.7427  157.0230 C.3     1  UNL1        0.0882
     47 C         141.2253  138.1521  156.3376 C.3     1  UNL1        0.0702
     48 C         141.7520  136.8151  156.7678 C.3     1  UNL1        0.0186
     49 N         141.8950  138.8984  155.2220 N.3     1  UNL1       -0.2974
     50 C         141.3684  140.2354  154.7919 C.3     1  UNL1        0.0702
     51 C         142.0381  140.9818  153.6763 C.3     1  UNL1        0.0186
     52 C         140.1719  140.8260  155.4772 C.3     1  UNL1        0.0882
     53 H         141.8645  138.2923  154.4023 H       1  UNL1        0.1232
     54 C         137.5779  140.3188  162.4109 C.3     1  UNL1        0.0993
     55 N         138.5035  139.4075  163.1610 N.3     1  UNL1       -0.2646
     56 C         139.2339  138.3170  162.4347 C.3     1  UNL1        0.1049
     57 C         140.1595  137.4057  163.1848 C.3     1  UNL1        0.1595
     58 O         140.3548  137.5848  164.6612 O.3     1  UNL1       -0.3508
     59 C         139.6244  138.6752  165.3875 C.3     1  UNL1        0.1595
     60 C         138.6988  139.5866  164.6374 C.3     1  UNL1        0.1049
@<TRIPOS>BOND
     1    22    23    1
     2    23    24   ar
     3    24    25   ar
     4    25    26   ar
     5    26    27    1
     6    26    28   ar
     7    28    18    1
     8    18    19    2
     9    18    20   am
    10    12    20    1
    11    12    13    1
    12    13    14    1
    13    14    15    1
    14    15     8    1
    15     8     9   am
    16     9    10    2
    17     9     1    1
    18     1     2   ar
    19     2     3   ar
    20     3     4    1
    21     3     5   ar
    22     5     6   ar
    23     6     7   ar
    24     7    31    1
    25    31    32    1
    26    32    33   ar
    27    33    34   ar
    28    34    35   ar
    29    35    36   ar
    30    36    38    1
    31    38    39   ar
    32    39    40   ar
    33    40    41   ar
    34    41    44    1
    35    44    45    1
    36    45    46    1
    37    46    47    1
    38    47    48    1
    39    47    49    1
    40    49    50    1
    41    50    51    1
    42    50    52    1
    43    41    42   ar
    44    42    43   ar
    45    43    54    1
    46    54    55    1
    47    55    56    1
    48    56    57    1
    49    57    58    1
    50    58    59    1
    51    59    60    1
    52    36    37   ar
    53    15    16    1
    54    16    17    1
    55    28    29   ar
    56    29    23   ar
    57    17    12    1
    58     7     1   ar
    59    37    32   ar
    60    43    38   ar
    61    60    55    1
    62    52    45    1
    63    27    30    1
    64    20    21    1
    65     8    11    1
    66    49    53    1
@<TRIPOS>MOLECULE
*****
 60 66 0 0 0
SMALL
GASTEIGER

@<TRIPOS>ATOM
      1 C         140.1768  141.7941  167.5815 C.ar    1  UNL1        0.1090
      2 C         140.0027  142.6974  168.7664 C.ar    1  UNL1        0.0405
      3 C         140.1027  142.1401  170.1554 C.ar    1  UNL1        0.1596
      4 F         139.9287  143.0434  171.3403 F       1  UNL1       -0.2025
      5 C         140.3767  140.6796  170.3597 C.ar    1  UNL1        0.1316
      6 N         140.5507  139.7763  169.1749 N.ar    1  UNL1       -0.2073
      7 C         140.4508  140.3336  167.7858 C.ar    1  UNL1        0.2341
      8 N         141.0404  143.4067  165.7367 N.am    1  UNL1       -0.3024
      9 C         140.0768  142.3514  166.1925 C.2     1  UNL1        0.2504
     10 O         139.0132  141.8534  165.2594 O.2     1  UNL1       -0.2700
     11 H         141.7384  143.7335  166.3492 H       1  UNL1        0.1497
     12 C         140.7404  145.0787  161.5696 C.3     1  UNL1        0.0720
     13 C         139.6128  145.2744  162.5392 C.3     1  UNL1        0.0213
     14 C         139.7128  144.7170  163.9282 C.3     1  UNL1        0.0213
     15 C         140.9404  143.9640  164.3476 C.3     1  UNL1        0.0720
     16 C         142.0680  143.7683  163.3780 C.3     1  UNL1        0.0213
     17 C         141.9680  144.3256  161.9890 C.3     1  UNL1        0.0213
     18 C         140.4173  144.7156  159.0174 C.2     1  UNL1        0.2487
     19 O         140.2941  143.2378  159.2432 O.2     1  UNL1       -0.2700
     20 N         140.6405  145.6360  160.1805 N.am    1  UNL1       -0.3024
     21 H         140.7213  146.6059  160.0323 H       1  UNL1        0.1497
     22 C         138.8982  148.4851  155.7797 C.3     1  UNL1        0.0310
     23 C         139.5578  147.1577  156.0095 C.ar    1  UNL1       -0.0215
     24 C         140.1175  146.3876  154.8503 C.ar    1  UNL1       -0.0011
     25 C         140.7771  145.0601  155.0802 C.ar    1  UNL1        0.0364
     26 C         140.8770  144.5028  156.4691 C.ar    1  UNL1        0.1379
     27 O         141.5367  143.1754  156.6990 O.3     1  UNL1       -0.5054
     28 C         140.3174  145.2729  157.6283 C.ar    1  UNL1        0.0866
     29 C         139.6578  146.6003  157.3985 C.ar    1  UNL1        0.0033
     30 H         141.8862  142.6943  155.9749 H       1  UNL1        0.2922
     31 O         140.6248  139.4303  166.6010 O.3     1  UNL1       -0.4360
     32 C         141.9528  139.3491  165.9084 C.ar    1  UNL1        0.1472
     33 C         143.0838  138.5940  166.5413 C.ar    1  UNL1        0.0376
     34 C         144.4119  138.5128  165.8487 C.ar    1  UNL1        0.0031
     35 C         144.6089  139.1867  164.5232 C.ar    1  UNL1        0.0002
     36 C         143.4780  139.9419  163.8904 C.ar    1  UNL1        0.0028
     37 C         142.1499  140.0231  164.5829 C.ar    1  UNL1        0.0375
     38 C         143.6750  140.6159  162.5648 C.ar    1  UNL1       -0.0026
     39 C         144.7827  141.6116  162.3871 C.ar    1  UNL1       -0.0005
     40 C         144.9798  142.2856  161.0616 C.ar    1  UNL1       -0.0029
     41 C         144.0691  141.9639  159.9140 C.ar    1  UNL1       -0.0064
     42 C         142.9614  140.9683  160.0917 C.ar    1  UNL1       -0.0058
     43 C         142.7643  140.2943  161.4172 C.ar    1  UNL1       -0.0064
     44 C         144.2661  142.6380  158.5884 C.3     1  UNL1        0.0992
     45 N         145.0142  141.9361  157.4940 N.3     1  UNL1       -0.2666
     46 C         144.4084  140.7419  156.8178 C.3     1  UNL1        0.0882
     47 C         145.1565  140.0400  155.7234 C.3     1  UNL1        0.0702
     48 C         144.5508  138.8460  155.0473 C.3     1  UNL1        0.0186
     49 N         146.5103  140.5323  155.3052 N.3     1  UNL1       -0.2974
     50 C         147.1160  141.7264  155.9813 C.3     1  UNL1        0.0702
     51 C         148.4699  142.2187  155.5630 C.3     1  UNL1        0.0186
     52 C         146.3680  142.4283  157.0757 C.3     1  UNL1        0.0882
     53 H         146.4483  140.7563  154.3120 H       1  UNL1        0.1232
     54 C         141.6566  139.2986  161.5949 C.3     1  UNL1        0.0993
     55 N         140.2272  139.7512  161.5512 N.3     1  UNL1       -0.2646
     56 C         139.1437  138.7797  161.1873 C.3     1  UNL1        0.1049
     57 C         137.7143  139.2323  161.1436 C.3     1  UNL1        0.1595
     58 O         137.3683  140.6563  161.4637 O.3     1  UNL1       -0.3508
     59 C         138.4517  141.6277  161.8276 C.3     1  UNL1        0.1595
     60 C         139.8812  141.1752  161.8713 C.3     1  UNL1        0.1049
@<TRIPOS>BOND
     1    22    23    1
     2    23    24   ar
     3    24    25   ar
     4    25    26   ar
     5    26    27    1
     6    26    28   ar
     7    28    18    1
     8    18    19    2
     9    18    20   am
    10    12    20    1
    11    12    13    1
    12    13    14    1
    13    14    15    1
    14    15     8    1
    15     8     9   am
    16     9    10    2
    17     9     1    1
    18     1     2   ar
    19     2     3   ar
    20     3     4    1
    21     3     5   ar
    22     5     6   ar
    23     6     7   ar
    24     7    31    1
    25    31    32    1
    26    32    33   ar
    27    33    34   ar
    28    34    35   ar
    29    35    36   ar
    30    36    38    1
    31    38    39   ar
    32    39    40   ar
    33    40    41   ar
    34    41    44    1
    35    44    45    1
    36    45    46    1
    37    46    47    1
    38    47    48    1
    39    47    49    1
    40    49    50    1
    41    50    51    1
    42    50    52    1
    43    41    42   ar
    44    42    43   ar
    45    43    54    1
    46    54    55    1
    47    55    56    1
    48    56    57    1
    49    57    58    1
    50    58    59    1
    51    59    60    1
    52    36    37   ar
    53    15    16    1
    54    16    17    1
    55    28    29   ar
    56    29    23   ar
    57    17    12    1
    58     7     1   ar
    59    37    32   ar
    60    43    38   ar
    61    60    55    1
    62    52    45    1
    63    27    30    1
    64    20    21    1
    65     8    11    1
    66    49    53    1
@<TRIPOS>MOLECULE
*****
 60 66 0 0 0
SMALL
GASTEIGER

@<TRIPOS>ATOM
      1 C         141.5922  137.4811  156.3570 C.ar    1  UNL1        0.1090
      2 C         140.3973  136.9753  155.6043 C.ar    1  UNL1        0.0405
      3 C         140.5139  136.6468  154.1454 C.ar    1  UNL1        0.1596
      4 F         139.3190  136.1410  153.3926 F       1  UNL1       -0.2025
      5 C         141.8253  136.8241  153.4391 C.ar    1  UNL1        0.1316
      6 N         143.0201  137.3298  154.1918 N.ar    1  UNL1       -0.2073
      7 C         142.9036  137.6583  155.6508 C.ar    1  UNL1        0.2341
      8 N         140.3186  138.6259  158.3107 N.am    1  UNL1       -0.3024
      9 C         141.4756  137.8096  157.8159 C.2     1  UNL1        0.2504
     10 O         142.5160  137.3217  158.7800 O.2     1  UNL1       -0.2700
     11 H         139.6357  138.9460  157.6779 H       1  UNL1        0.1497
     12 C         139.9686  139.6114  162.6875 C.3     1  UNL1        0.0720
     13 C         139.1849  138.4698  162.1108 C.3     1  UNL1        0.0213
     14 C         139.3016  138.1413  160.6519 C.3     1  UNL1        0.0213
     15 C         140.2019  138.9544  159.7697 C.3     1  UNL1        0.0720
     16 C         140.9856  140.0959  160.3464 C.3     1  UNL1        0.0213
     17 C         140.8690  140.4244  161.8053 C.3     1  UNL1        0.0213
     18 C         140.7619  139.2791  165.1391 C.2     1  UNL1        0.2487
     19 O         141.7884  138.2898  164.6729 O.2     1  UNL1       -0.2700
     20 N         139.8520  139.9399  164.1465 N.am    1  UNL1       -0.3024
     21 H         139.1782  140.5892  164.4525 H       1  UNL1        0.1497
     22 C         142.9894  140.5615  169.6551 C.3     1  UNL1        0.0310
     23 C         141.7590  140.2488  168.8560 C.ar    1  UNL1       -0.0215
     24 C         140.4121  140.2647  169.5159 C.ar    1  UNL1       -0.0011
     25 C         139.1817  139.9520  168.7169 C.ar    1  UNL1        0.0364
     26 C         139.2983  139.6235  167.2580 C.ar    1  UNL1        0.1379
     27 O         138.0679  139.3109  166.4589 O.3     1  UNL1       -0.5054
     28 C         140.6452  139.6076  166.5981 C.ar    1  UNL1        0.0866
     29 C         141.8756  139.9203  167.3971 C.ar    1  UNL1        0.0033
     30 H         137.2265  139.3208  166.8711 H       1  UNL1        0.2922
     31 O         144.0984  138.1641  156.4034 O.3     1  UNL1       -0.4360
     32 C         144.3348  139.6398  156.5312 C.ar    1  UNL1        0.1472
     33 C         145.4513  140.2893  155.7685 C.ar    1  UNL1        0.0376
     34 C         145.6877  141.7650  155.8963 C.ar    1  UNL1        0.0031
     35 C         144.8077  142.5913  156.7867 C.ar    1  UNL1        0.0002
     36 C         143.6912  141.9418  157.5493 C.ar    1  UNL1        0.0028
     37 C         143.4548  140.4661  157.4216 C.ar    1  UNL1        0.0375
     38 C         142.8112  142.7680  158.4398 C.ar    1  UNL1       -0.0026
     39 C         141.5076  143.2995  157.9217 C.ar    1  UNL1       -0.0005
     40 C         140.6276  144.1257  158.8121 C.ar    1  UNL1       -0.0029
     41 C         141.0510  144.4205  160.2205 C.ar    1  UNL1       -0.0064
     42 C         142.3545  143.8890  160.7386 C.ar    1  UNL1       -0.0058
     43 C         143.2346  143.0628  159.8482 C.ar    1  UNL1       -0.0064
     44 C         140.1709  145.2467  161.1110 C.3     1  UNL1        0.0992
     45 N         139.3707  144.5876  162.1950 N.3     1  UNL1       -0.2666
     46 C         139.3280  145.1906  163.5679 C.3     1  UNL1        0.0882
     47 C         138.5278  144.5315  164.6520 C.3     1  UNL1        0.0702
     48 C         138.4850  145.1344  166.0248 C.3     1  UNL1        0.0186
     49 N         137.7702  143.2694  164.3632 N.3     1  UNL1       -0.2974
     50 C         137.8130  142.6664  162.9904 C.3     1  UNL1        0.0702
     51 C         137.0555  141.4043  162.7016 C.3     1  UNL1        0.0186
     52 C         138.6132  143.3256  161.9063 C.3     1  UNL1        0.0882
     53 H         136.7900  143.4603  164.5705 H       1  UNL1        0.1232
     54 C         144.5381  142.5313  160.3663 C.3     1  UNL1        0.0993
     55 N         144.6102  141.9282  161.7378 N.3     1  UNL1       -0.2646
     56 C         144.4734  140.4447  161.9129 C.3     1  UNL1        0.1049
     57 C         144.5454  139.8416  163.2844 C.3     1  UNL1        0.1595
     58 O         144.7543  140.7219  164.4808 O.3     1  UNL1       -0.3508
     59 C         144.8911  142.2054  164.3058 C.3     1  UNL1        0.1595
     60 C         144.8190  142.8085  162.9342 C.3     1  UNL1        0.1049
@<TRIPOS>BOND
     1    22    23    1
     2    23    24   ar
     3    24    25   ar
     4    25    26   ar
     5    26    27    1
     6    26    28   ar
     7    28    18    1
     8    18    19    2
     9    18    20   am
    10    12    20    1
    11    12    13    1
    12    13    14    1
    13    14    15    1
    14    15     8    1
    15     8     9   am
    16     9    10    2
    17     9     1    1
    18     1     2   ar
    19     2     3   ar
    20     3     4    1
    21     3     5   ar
    22     5     6   ar
    23     6     7   ar
    24     7    31    1
    25    31    32    1
    26    32    33   ar
    27    33    34   ar
    28    34    35   ar
    29    35    36   ar
    30    36    38    1
    31    38    39   ar
    32    39    40   ar
    33    40    41   ar
    34    41    44    1
    35    44    45    1
    36    45    46    1
    37    46    47    1
    38    47    48    1
    39    47    49    1
    40    49    50    1
    41    50    51    1
    42    50    52    1
    43    41    42   ar
    44    42    43   ar
    45    43    54    1
    46    54    55    1
    47    55    56    1
    48    56    57    1
    49    57    58    1
    50    58    59    1
    51    59    60    1
    52    36    37   ar
    53    15    16    1
    54    16    17    1
    55    28    29   ar
    56    29    23   ar
    57    17    12    1
    58     7     1   ar
    59    37    32   ar
    60    43    38   ar
    61    60    55    1
    62    52    45    1
    63    27    30    1
    64    20    21    1
    65     8    11    1
    66    49    53    1
@<TRIPOS>MOLECULE
*****
 60 66 0 0 0
SMALL
GASTEIGER

@<TRIPOS>ATOM
      1 C         140.6602  145.7845  157.1446 C.ar    1  UNL1        0.1090
      2 C         139.5552  146.7372  156.7958 C.ar    1  UNL1        0.0405
      3 C         139.4192  147.2462  155.3915 C.ar    1  UNL1        0.1596
      4 F         138.3143  148.1989  155.0427 F       1  UNL1       -0.2025
      5 C         140.3882  146.8026  154.3358 C.ar    1  UNL1        0.1316
      6 N         141.4931  145.8500  154.6845 N.ar    1  UNL1       -0.2073
      7 C         141.6291  145.3409  156.0890 C.ar    1  UNL1        0.2341
      8 N         139.6603  144.5364  159.1921 N.am    1  UNL1       -0.3024
      9 C         140.7961  145.2754  158.5490 C.2     1  UNL1        0.2504
     10 O         142.0679  145.5054  159.3103 O.2     1  UNL1       -0.2700
     11 H         138.8256  144.3854  158.6924 H       1  UNL1        0.1497
     12 C         140.0680  143.0092  163.4053 C.3     1  UNL1        0.0720
     13 C         139.5880  144.4086  163.1580 C.3     1  UNL1        0.0213
     14 C         139.4521  144.9176  161.7536 C.3     1  UNL1        0.0213
     15 C         139.7962  144.0273  160.5965 C.3     1  UNL1        0.0720
     16 C         140.2763  142.6279  160.8438 C.3     1  UNL1        0.0213
     17 C         140.4122  142.1188  162.2482 C.3     1  UNL1        0.0213
     18 C         141.4041  142.8714  165.6293 C.2     1  UNL1        0.2487
     19 O         142.4684  143.7519  165.0444 O.2     1  UNL1       -0.2700
     20 N         140.2040  142.5001  164.8098 N.am    1  UNL1       -0.3024
     21 H         139.5054  141.9222  165.1936 H       1  UNL1        0.1497
     22 C         139.2717  140.8007  169.8913 C.3     1  UNL1        0.0310
     23 C         140.4738  141.3270  169.1647 C.ar    1  UNL1       -0.0215
     24 C         141.8118  141.3442  169.8425 C.ar    1  UNL1       -0.0011
     25 C         143.0139  141.8705  169.1159 C.ar    1  UNL1        0.0364
     26 C         142.8780  142.3795  167.7115 C.ar    1  UNL1        0.1379
     27 O         144.0802  142.9058  166.9849 O.3     1  UNL1       -0.5054
     28 C         141.5401  142.3623  167.0337 C.ar    1  UNL1        0.0866
     29 C         140.3379  141.8361  167.7603 C.ar    1  UNL1        0.0033
     30 H         144.9160  142.9166  167.4083 H       1  UNL1        0.2922
     31 O         142.7340  144.3883  156.4377 O.3     1  UNL1       -0.4360
     32 C         142.5091  142.9088  156.3346 C.ar    1  UNL1        0.1472
     33 C         142.8134  142.1914  155.0529 C.ar    1  UNL1        0.0376
     34 C         142.5885  140.7120  154.9499 C.ar    1  UNL1        0.0031
     35 C         142.0594  139.9499  156.1285 C.ar    1  UNL1        0.0002
     36 C         141.7552  140.6673  157.4102 C.ar    1  UNL1        0.0028
     37 C         141.9800  142.1467  157.5132 C.ar    1  UNL1        0.0375
     38 C         141.2260  139.9052  158.5889 C.ar    1  UNL1       -0.0026
     39 C         139.8055  139.4235  158.5942 C.ar    1  UNL1       -0.0005
     40 C         139.2763  138.6615  159.7729 C.ar    1  UNL1       -0.0029
     41 C         140.1677  138.3811  160.9462 C.ar    1  UNL1       -0.0064
     42 C         141.5883  138.8627  160.9409 C.ar    1  UNL1       -0.0058
     43 C         142.1174  139.6248  159.7622 C.ar    1  UNL1       -0.0064
     44 C         139.6386  137.6190  162.1249 C.3     1  UNL1        0.0992
     45 N         139.9097  138.1076  163.5169 N.3     1  UNL1       -0.2666
     46 C         138.7723  138.3233  164.4708 C.3     1  UNL1        0.0882
     47 C         139.0433  138.8120  165.8629 C.3     1  UNL1        0.0702
     48 C         137.9061  139.0277  166.8168 C.3     1  UNL1        0.0186
     49 N         140.4518  139.0849  166.3010 N.3     1  UNL1       -0.2974
     50 C         141.5891  138.8691  165.3471 C.3     1  UNL1        0.0702
     51 C         142.9975  139.1420  165.7852 C.3     1  UNL1        0.0186
     52 C         141.3180  138.3805  163.9551 C.3     1  UNL1        0.0882
     53 H         140.6291  138.4895  167.1100 H       1  UNL1        0.1232
     54 C         143.5380  140.1064  159.7569 C.3     1  UNL1        0.0993
     55 N         144.0489  140.9477  160.8887 N.3     1  UNL1       -0.2646
     56 C         144.0227  142.4438  160.7824 C.3     1  UNL1        0.1049
     57 C         144.5336  143.2851  161.9143 C.3     1  UNL1        0.1595
     58 O         145.0708  142.6305  163.1524 O.3     1  UNL1       -0.3508
     59 C         145.0970  141.1346  163.2587 C.3     1  UNL1        0.1595
     60 C         144.5860  140.2931  162.1268 C.3     1  UNL1        0.1049
@<TRIPOS>BOND
     1    22    23    1
     2    23    24   ar
     3    24    25   ar
     4    25    26   ar
     5    26    27    1
     6    26    28   ar
     7    28    18    1
     8    18    19    2
     9    18    20   am
    10    12    20    1
    11    12    13    1
    12    13    14    1
    13    14    15    1
    14    15     8    1
    15     8     9   am
    16     9    10    2
    17     9     1    1
    18     1     2   ar
    19     2     3   ar
    20     3     4    1
    21     3     5   ar
    22     5     6   ar
    23     6     7   ar
    24     7    31    1
    25    31    32    1
    26    32    33   ar
    27    33    34   ar
    28    34    35   ar
    29    35    36   ar
    30    36    38    1
    31    38    39   ar
    32    39    40   ar
    33    40    41   ar
    34    41    44    1
    35    44    45    1
    36    45    46    1
    37    46    47    1
    38    47    48    1
    39    47    49    1
    40    49    50    1
    41    50    51    1
    42    50    52    1
    43    41    42   ar
    44    42    43   ar
    45    43    54    1
    46    54    55    1
    47    55    56    1
    48    56    57    1
    49    57    58    1
    50    58    59    1
    51    59    60    1
    52    36    37   ar
    53    15    16    1
    54    16    17    1
    55    28    29   ar
    56    29    23   ar
    57    17    12    1
    58     7     1   ar
    59    37    32   ar
    60    43    38   ar
    61    60    55    1
    62    52    45    1
    63    27    30    1
    64    20    21    1
    65     8    11    1
    66    49    53    1
@<TRIPOS>MOLECULE
*****
 60 66 0 0 0
SMALL
GASTEIGER

@<TRIPOS>ATOM
      1 C         142.3455  141.0284  166.2665 C.ar    1  UNL1        0.1090
      2 C         142.5350  139.8500  167.1752 C.ar    1  UNL1        0.0405
      3 C         142.0247  139.9002  168.5848 C.ar    1  UNL1        0.1596
      4 F         142.2142  138.7218  169.4935 F       1  UNL1       -0.2025
      5 C         141.3249  141.1287  169.0859 C.ar    1  UNL1        0.1316
      6 N         141.1354  142.3071  168.1773 N.ar    1  UNL1       -0.2073
      7 C         141.6457  142.2569  166.7676 C.ar    1  UNL1        0.2341
      8 N         142.1364  140.1577  163.8277 N.am    1  UNL1       -0.3024
      9 C         142.8557  140.9782  164.8569 C.2     1  UNL1        0.2504
     10 O         144.0853  141.7486  164.4765 O.2     1  UNL1       -0.2700
     11 H         141.3294  139.6521  164.0774 H       1  UNL1        0.1497
     12 C         143.6671  140.0071  159.5987 C.3     1  UNL1        0.0720
     13 C         142.5333  140.9227  159.9538 C.3     1  UNL1        0.0213
     14 C         142.0231  140.9729  161.3634 C.3     1  UNL1        0.0213
     15 C         142.6467  140.1075  162.4180 C.3     1  UNL1        0.0720
     16 C         143.7805  139.1918  162.0630 C.3     1  UNL1        0.0213
     17 C         144.2906  139.1416  160.6533 C.3     1  UNL1        0.0213
     18 C         144.8467  141.1583  157.5905 C.2     1  UNL1        0.2487
     19 O         145.0059  142.4101  158.4015 O.2     1  UNL1       -0.2700
     20 N         144.1773  139.9569  158.1890 N.am    1  UNL1       -0.3024
     21 H         144.0728  139.1353  157.6567 H       1  UNL1        0.1497
     22 C         144.2972  139.6191  152.6580 C.3     1  UNL1        0.0310
     23 C         145.0822  140.3385  153.7146 C.ar    1  UNL1       -0.0215
     24 C         146.3773  141.0076  153.3615 C.ar    1  UNL1       -0.0011
     25 C         147.1623  141.7270  154.4180 C.ar    1  UNL1        0.0364
     26 C         146.6521  141.7773  155.8277 C.ar    1  UNL1        0.1379
     27 O         147.4371  142.4967  156.8842 O.3     1  UNL1       -0.5054
     28 C         145.3570  141.1081  156.1808 C.ar    1  UNL1        0.0866
     29 C         144.5720  140.3887  155.1242 C.ar    1  UNL1        0.0033
     30 H         148.2462  142.9147  156.6636 H       1  UNL1        0.2922
     31 O         141.4562  143.4352  165.8590 O.3     1  UNL1       -0.4360
     32 C         140.1941  143.5707  165.0597 C.ar    1  UNL1        0.1472
     33 C         138.9978  144.2508  165.6563 C.ar    1  UNL1        0.0376
     34 C         137.7357  144.3862  164.8570 C.ar    1  UNL1        0.0031
     35 C         137.6701  143.8415  163.4610 C.ar    1  UNL1        0.0002
     36 C         138.8664  143.1613  162.8643 C.ar    1  UNL1        0.0028
     37 C         140.1285  143.0259  163.6637 C.ar    1  UNL1        0.0375
     38 C         138.8008  142.6165  161.4682 C.ar    1  UNL1       -0.0026
     39 C         139.4030  143.3894  160.3325 C.ar    1  UNL1       -0.0005
     40 C         139.3374  142.8447  158.9365 C.ar    1  UNL1       -0.0029
     41 C         138.6696  141.5270  158.6762 C.ar    1  UNL1       -0.0064
     42 C         138.0674  140.7541  159.8120 C.ar    1  UNL1       -0.0058
     43 C         138.1330  141.2988  161.2080 C.ar    1  UNL1       -0.0064
     44 C         138.6040  140.9822  157.2801 C.3     1  UNL1        0.0992
     45 N         137.4434  141.3266  156.3944 N.3     1  UNL1       -0.2666
     46 C         137.5999  142.3646  155.3229 C.3     1  UNL1        0.0882
     47 C         136.4393  142.7090  154.4372 C.3     1  UNL1        0.0702
     48 C         136.5957  143.7470  153.3657 C.3     1  UNL1        0.0186
     49 N         135.1222  142.0155  154.6231 N.3     1  UNL1       -0.2974
     50 C         134.9658  140.9775  155.6946 C.3     1  UNL1        0.0702
     51 C         133.6488  140.2840  155.8805 C.3     1  UNL1        0.0186
     52 C         136.1264  140.6331  156.5803 C.3     1  UNL1        0.0882
     53 H         134.9018  141.5599  153.7375 H       1  UNL1        0.1232
     54 C         137.5308  140.5259  162.3437 C.3     1  UNL1        0.0993
     55 N         138.3861  139.6022  163.1592 N.3     1  UNL1       -0.2646
     56 C         139.1417  138.4928  162.4895 C.3     1  UNL1        0.1049
     57 C         139.9971  137.5690  163.3050 C.3     1  UNL1        0.1595
     58 O         140.0969  137.7547  164.7901 O.3     1  UNL1       -0.3508
     59 C         139.3414  138.8640  165.4598 C.3     1  UNL1        0.1595
     60 C         138.4860  139.7878  164.6443 C.3     1  UNL1        0.1049
@<TRIPOS>BOND
     1    22    23    1
     2    23    24   ar
     3    24    25   ar
     4    25    26   ar
     5    26    27    1
     6    26    28   ar
     7    28    18    1
     8    18    19    2
     9    18    20   am
    10    12    20    1
    11    12    13    1
    12    13    14    1
    13    14    15    1
    14    15     8    1
    15     8     9   am
    16     9    10    2
    17     9     1    1
    18     1     2   ar
    19     2     3   ar
    20     3     4    1
    21     3     5   ar
    22     5     6   ar
    23     6     7   ar
    24     7    31    1
    25    31    32    1
    26    32    33   ar
    27    33    34   ar
    28    34    35   ar
    29    35    36   ar
    30    36    38    1
    31    38    39   ar
    32    39    40   ar
    33    40    41   ar
    34    41    44    1
    35    44    45    1
    36    45    46    1
    37    46    47    1
    38    47    48    1
    39    47    49    1
    40    49    50    1
    41    50    51    1
    42    50    52    1
    43    41    42   ar
    44    42    43   ar
    45    43    54    1
    46    54    55    1
    47    55    56    1
    48    56    57    1
    49    57    58    1
    50    58    59    1
    51    59    60    1
    52    36    37   ar
    53    15    16    1
    54    16    17    1
    55    28    29   ar
    56    29    23   ar
    57    17    12    1
    58     7     1   ar
    59    37    32   ar
    60    43    38   ar
    61    60    55    1
    62    52    45    1
    63    27    30    1
    64    20    21    1
    65     8    11    1
    66    49    53    1
