@<TRIPOS>MOLECULE
*****
 30 33 0 0 0
SMALL
GASTEIGER

@<TRIPOS>ATOM
      1 C         139.1645  140.9579  163.9335 C.ar    1  UNL1        0.0686
      2 C         139.5840  139.5274  164.1005 C.ar    1  UNL1        0.1045
      3 N         140.1776  139.0666  165.3986 N.ar    1  UNL1       -0.2290
      4 C         140.3517  140.0362  166.5299 C.ar    1  UNL1        0.1319
      5 C         139.9322  141.4667  166.3629 C.ar    1  UNL1        0.0303
      6 C         139.3386  141.9275  165.0646 C.ar    1  UNL1       -0.0138
      7 O         137.0836  141.5560  162.4976 O.2     1  UNL1       -0.2701
      8 C         138.5709  141.4187  162.6353 C.2     1  UNL1        0.2471
      9 N         139.4646  141.7422  161.4749 N.am    1  UNL1       -0.3008
     10 H         140.4408  141.6520  161.5652 H       1  UNL1        0.1497
     11 C         138.8710  142.2030  160.1767 C.3     1  UNL1        0.0898
     12 C         139.5105  143.3271  159.4167 C.3     1  UNL1        0.0246
     13 C         139.2945  143.4507  157.9375 C.3     1  UNL1        0.0338
     14 C         139.9340  144.5747  157.1776 C.3     1  UNL1        0.1422
     15 O         140.7895  145.5752  157.8968 O.3     1  UNL1       -0.3538
     16 C         141.0055  145.4515  159.3760 C.3     1  UNL1        0.1422
     17 C         140.3660  144.3275  160.1359 C.3     1  UNL1        0.0338
     18 C         138.9190  143.3579  164.8976 C.3     1  UNL1        0.0226
     19 C         139.2757  144.8032  164.7137 C.3     1  UNL1        0.0047
     20 C         137.8358  144.3901  164.7923 C.3     1  UNL1        0.0047
     21 N         140.9453  139.5754  167.8280 N.pl3   1  UNL1       -0.2973
     22 H         141.0701  138.6138  167.9984 H       1  UNL1        0.1536
     23 C         141.3488  140.5796  168.8666 C.ar    1  UNL1        0.0609
     24 C         142.7422  141.1348  168.8718 C.ar    1  UNL1        0.0269
     25 C         143.1456  142.1391  169.9104 C.ar    1  UNL1        0.0590
     26 CL        144.5391  142.6943  169.9155 Cl      1  UNL1       -0.0822
     27 C         142.1556  142.5881  170.9439 C.ar    1  UNL1        0.0123
     28 C         140.7622  142.0329  170.9388 C.ar    1  UNL1        0.0135
     29 C         140.3588  141.0287  169.9002 C.ar    1  UNL1        0.0711
     30 CL        138.9652  140.4735  169.8951 Cl      1  UNL1       -0.0810
@<TRIPOS>BOND
     1     7     8    2
     2     8     9   am
     3     9    11    1
     4    11    12    1
     5    12    13    1
     6    13    14    1
     7    14    15    1
     8    15    16    1
     9    16    17    1
    10     8     1    1
    11     1     2   ar
    12     2     3   ar
    13     3     4   ar
    14     4    21    1
    15    21    23    1
    16    23    24   ar
    17    24    25   ar
    18    25    26    1
    19    25    27   ar
    20    27    28   ar
    21    28    29   ar
    22    29    30    1
    23     4     5   ar
    24     5     6   ar
    25     6    18    1
    26    18    19    1
    27    19    20    1
    28    17    12    1
    29     6     1   ar
    30    20    18    1
    31    29    23   ar
    32     9    10    1
    33    21    22    1
@<TRIPOS>MOLECULE
*****
 30 33 0 0 0
SMALL
GASTEIGER

@<TRIPOS>ATOM
      1 C         141.4985  144.4637  163.0057 C.ar    1  UNL1        0.0686
      2 C         142.9220  144.4844  163.4782 C.ar    1  UNL1        0.1045
      3 N         143.3098  143.7433  164.7232 N.ar    1  UNL1       -0.2290
      4 C         142.2741  142.9814  165.4959 C.ar    1  UNL1        0.1319
      5 C         140.8506  142.9607  165.0234 C.ar    1  UNL1        0.0303
      6 C         140.4628  143.7019  163.7782 C.ar    1  UNL1       -0.0138
      7 O         140.1005  146.3114  161.8304 O.2     1  UNL1       -0.2701
      8 C         141.1107  145.2048  161.7606 C.2     1  UNL1        0.2471
      9 N         141.7332  144.8394  160.4456 N.am    1  UNL1       -0.3008
     10 H         142.3963  144.1132  160.3998 H       1  UNL1        0.1497
     11 C         141.3454  145.5806  159.2005 C.3     1  UNL1        0.0898
     12 C         140.3892  144.9601  158.2254 C.3     1  UNL1        0.0246
     13 C         140.1463  145.6106  156.8959 C.3     1  UNL1        0.0338
     14 C         139.1902  144.9902  155.9209 C.3     1  UNL1        0.1422
     15 O         138.4768  143.7191  156.2754 O.3     1  UNL1       -0.3538
     16 C         138.7197  143.0686  157.6050 C.3     1  UNL1        0.1422
     17 C         139.6759  143.6891  158.5800 C.3     1  UNL1        0.0338
     18 C         139.0394  143.6812  163.3057 C.3     1  UNL1        0.0226
     19 C         137.6049  144.0811  163.4858 C.3     1  UNL1        0.0047
     20 C         138.0083  143.2455  162.3072 C.3     1  UNL1        0.0047
     21 N         142.6619  142.2403  166.7410 N.pl3   1  UNL1       -0.2973
     22 H         143.6107  142.0577  166.9298 H       1  UNL1        0.1536
     23 C         141.6041  141.7772  167.6984 C.ar    1  UNL1        0.0609
     24 C         141.1284  142.6901  168.7894 C.ar    1  UNL1        0.0269
     25 C         140.0706  142.2271  169.7468 C.ar    1  UNL1        0.0590
     26 CL        139.5949  143.1401  170.8378 Cl      1  UNL1       -0.0822
     27 C         139.4884  140.8512  169.6132 C.ar    1  UNL1        0.0123
     28 C         139.9641  139.9383  168.5222 C.ar    1  UNL1        0.0135
     29 C         141.0219  140.4013  167.5648 C.ar    1  UNL1        0.0711
     30 CL        141.4976  139.4883  166.4738 Cl      1  UNL1       -0.0810
@<TRIPOS>BOND
     1     7     8    2
     2     8     9   am
     3     9    11    1
     4    11    12    1
     5    12    13    1
     6    13    14    1
     7    14    15    1
     8    15    16    1
     9    16    17    1
    10     8     1    1
    11     1     2   ar
    12     2     3   ar
    13     3     4   ar
    14     4    21    1
    15    21    23    1
    16    23    24   ar
    17    24    25   ar
    18    25    26    1
    19    25    27   ar
    20    27    28   ar
    21    28    29   ar
    22    29    30    1
    23     4     5   ar
    24     5     6   ar
    25     6    18    1
    26    18    19    1
    27    19    20    1
    28    17    12    1
    29     6     1   ar
    30    20    18    1
    31    29    23   ar
    32     9    10    1
    33    21    22    1
@<TRIPOS>MOLECULE
*****
 30 33 0 0 0
SMALL
GASTEIGER

@<TRIPOS>ATOM
      1 C         139.1236  141.0491  163.9535 C.ar    1  UNL1        0.0686
      2 C         139.4171  139.5895  164.1359 C.ar    1  UNL1        0.1045
      3 N         139.9805  139.0944  165.4349 N.ar    1  UNL1       -0.2290
      4 C         140.2504  140.0590  166.5515 C.ar    1  UNL1        0.1319
      5 C         139.9568  141.5186  166.3691 C.ar    1  UNL1        0.0303
      6 C         139.3934  142.0137  165.0700 C.ar    1  UNL1       -0.0138
      7 O         137.0760  141.5590  162.4378 O.2     1  UNL1       -0.2701
      8 C         138.5602  141.5442  162.6545 C.2     1  UNL1        0.2471
      9 N         139.4810  142.0246  161.5721 N.am    1  UNL1       -0.3008
     10 H         140.4551  142.0149  161.7143 H       1  UNL1        0.1497
     11 C         138.9176  142.5197  160.2731 C.3     1  UNL1        0.0898
     12 C         138.7370  141.5723  159.1243 C.3     1  UNL1        0.0246
     13 C         139.5125  140.2890  159.0814 C.3     1  UNL1        0.0338
     14 C         139.3319  139.3417  157.9326 C.3     1  UNL1        0.1422
     15 O         138.3758  139.6775  156.8266 O.3     1  UNL1       -0.3538
     16 C         137.6003  140.9608  156.8695 C.3     1  UNL1        0.1422
     17 C         137.7809  141.9081  158.0183 C.3     1  UNL1        0.0338
     18 C         139.0998  143.4733  164.8876 C.3     1  UNL1        0.0226
     19 C         138.1912  144.6502  165.0854 C.3     1  UNL1        0.0047
     20 C         139.5001  144.8245  164.3739 C.3     1  UNL1        0.0047
     21 N         140.8138  139.5639  167.8505 N.pl3   1  UNL1       -0.2973
     22 H         140.8962  138.5966  168.0145 H       1  UNL1        0.1536
     23 C         141.2516  140.5424  168.8997 C.ar    1  UNL1        0.0609
     24 C         142.6531  141.0769  168.8886 C.ar    1  UNL1        0.0269
     25 C         143.0909  142.0555  169.9377 C.ar    1  UNL1        0.0590
     26 CL        144.4925  142.5900  169.9266 Cl      1  UNL1       -0.0822
     27 C         142.1273  142.4996  170.9979 C.ar    1  UNL1        0.0123
     28 C         140.7258  141.9651  171.0090 C.ar    1  UNL1        0.0135
     29 C         140.2880  140.9866  169.9599 C.ar    1  UNL1        0.0711
     30 CL        138.8864  140.4521  169.9710 Cl      1  UNL1       -0.0810
@<TRIPOS>BOND
     1     7     8    2
     2     8     9   am
     3     9    11    1
     4    11    12    1
     5    12    13    1
     6    13    14    1
     7    14    15    1
     8    15    16    1
     9    16    17    1
    10     8     1    1
    11     1     2   ar
    12     2     3   ar
    13     3     4   ar
    14     4    21    1
    15    21    23    1
    16    23    24   ar
    17    24    25   ar
    18    25    26    1
    19    25    27   ar
    20    27    28   ar
    21    28    29   ar
    22    29    30    1
    23     4     5   ar
    24     5     6   ar
    25     6    18    1
    26    18    19    1
    27    19    20    1
    28    17    12    1
    29     6     1   ar
    30    20    18    1
    31    29    23   ar
    32     9    10    1
    33    21    22    1
@<TRIPOS>MOLECULE
*****
 30 33 0 0 0
SMALL
GASTEIGER

@<TRIPOS>ATOM
      1 C         141.3047  139.5241  164.8708 C.ar    1  UNL1        0.0686
      2 C         142.0539  139.4302  163.5747 C.ar    1  UNL1        0.1045
      3 N         141.3786  138.8730  162.3568 N.ar    1  UNL1       -0.2290
      4 C         139.9540  138.4097  162.4349 C.ar    1  UNL1        0.1319
      5 C         139.2048  138.5036  163.7310 C.ar    1  UNL1        0.0303
      6 C         139.8802  139.0609  164.9490 C.ar    1  UNL1       -0.0138
      7 O         142.7102  139.1660  167.0263 O.2     1  UNL1       -0.2701
      8 C         141.9800  140.0813  166.0888 C.2     1  UNL1        0.2471
      9 N         141.9251  141.5539  166.3693 N.am    1  UNL1       -0.3008
     10 H         141.4458  142.1546  165.7539 H       1  UNL1        0.1497
     11 C         142.6004  142.1111  167.5872 C.3     1  UNL1        0.0898
     12 C         141.8703  142.1521  168.8970 C.3     1  UNL1        0.0246
     13 C         142.3202  141.2831  170.0338 C.3     1  UNL1        0.0338
     14 C         141.5901  141.3241  171.3435 C.3     1  UNL1        0.1422
     15 O         140.4102  142.2341  171.5163 O.3     1  UNL1       -0.3538
     16 C         139.9604  143.1030  170.3794 C.3     1  UNL1        0.1422
     17 C         140.6905  143.0620  169.0698 C.3     1  UNL1        0.0338
     18 C         139.1310  139.1548  166.2451 C.3     1  UNL1        0.0226
     19 C         137.9395  138.8022  167.0853 C.3     1  UNL1        0.0047
     20 C         139.0249  139.6702  167.6498 C.3     1  UNL1        0.0047
     21 N         139.2787  137.8525  161.2170 N.pl3   1  UNL1       -0.2973
     22 H         138.9071  136.9409  161.2338 H       1  UNL1        0.1536
     23 C         139.1695  138.6841  159.9734 C.ar    1  UNL1        0.0609
     24 C         140.0262  138.3693  158.7831 C.ar    1  UNL1        0.0269
     25 C         139.9170  139.2009  157.5395 C.ar    1  UNL1        0.0590
     26 CL        140.7739  138.8862  156.3491 Cl      1  UNL1       -0.0822
     27 C         138.9511  140.3473  157.4862 C.ar    1  UNL1        0.0123
     28 C         138.0944  140.6620  158.6765 C.ar    1  UNL1        0.0135
     29 C         138.2036  139.8304  159.9201 C.ar    1  UNL1        0.0711
     30 CL        137.3468  140.1452  161.1105 Cl      1  UNL1       -0.0810
@<TRIPOS>BOND
     1     7     8    2
     2     8     9   am
     3     9    11    1
     4    11    12    1
     5    12    13    1
     6    13    14    1
     7    14    15    1
     8    15    16    1
     9    16    17    1
    10     8     1    1
    11     1     2   ar
    12     2     3   ar
    13     3     4   ar
    14     4    21    1
    15    21    23    1
    16    23    24   ar
    17    24    25   ar
    18    25    26    1
    19    25    27   ar
    20    27    28   ar
    21    28    29   ar
    22    29    30    1
    23     4     5   ar
    24     5     6   ar
    25     6    18    1
    26    18    19    1
    27    19    20    1
    28    17    12    1
    29     6     1   ar
    30    20    18    1
    31    29    23   ar
    32     9    10    1
    33    21    22    1
@<TRIPOS>MOLECULE
*****
 30 33 0 0 0
SMALL
GASTEIGER

@<TRIPOS>ATOM
      1 C         142.3149  143.2669  164.1644 C.ar    1  UNL1        0.0686
      2 C         141.2112  144.2686  163.9954 C.ar    1  UNL1        0.1045
      3 N         141.0246  144.9641  162.6796 N.ar    1  UNL1       -0.2290
      4 C         141.9416  144.6579  161.5326 C.ar    1  UNL1        0.1319
      5 C         143.0453  143.6562  161.7016 C.ar    1  UNL1        0.0303
      6 C         143.2319  142.9607  163.0175 C.ar    1  UNL1       -0.0138
      7 O         143.6666  142.9245  166.3565 O.2     1  UNL1       -0.2701
      8 C         142.5015  142.5714  165.4802 C.2     1  UNL1        0.2471
      9 N         141.5230  141.5229  165.9198 N.am    1  UNL1       -0.3008
     10 H         140.7583  141.2911  165.3446 H       1  UNL1        0.1497
     11 C         141.7097  140.8274  167.2356 C.3     1  UNL1        0.0898
     12 C         140.8081  141.1515  168.3898 C.3     1  UNL1        0.0246
     13 C         140.9041  142.4878  169.0642 C.3     1  UNL1        0.0338
     14 C         140.0025  142.8119  170.2184 C.3     1  UNL1        0.1422
     15 O         139.0049  141.7996  170.6980 O.3     1  UNL1       -0.3538
     16 C         138.9089  140.4633  170.0236 C.3     1  UNL1        0.1422
     17 C         139.8104  140.1392  168.8694 C.3     1  UNL1        0.0338
     18 C         144.3356  141.9590  163.1865 C.3     1  UNL1        0.0226
     19 C         145.7612  141.6423  163.5289 C.3     1  UNL1        0.0047
     20 C         144.8215  140.5408  163.1368 C.3     1  UNL1        0.0047
     21 N         141.7550  145.3534  160.2168 N.pl3   1  UNL1       -0.2973
     22 H         142.1391  146.2486  160.0744 H       1  UNL1        0.1536
     23 C         140.9831  144.6849  159.1180 C.ar    1  UNL1        0.0609
     24 C         139.9623  143.6369  159.4488 C.ar    1  UNL1        0.0269
     25 C         139.1904  142.9684  158.3500 C.ar    1  UNL1        0.0590
     26 CL        138.1696  141.9203  158.6809 Cl      1  UNL1       -0.0822
     27 C         139.4394  143.3480  156.9204 C.ar    1  UNL1        0.0123
     28 C         140.4602  144.3961  156.5896 C.ar    1  UNL1        0.0135
     29 C         141.2321  145.0645  157.6884 C.ar    1  UNL1        0.0711
     30 CL        142.2530  146.1126  157.3575 Cl      1  UNL1       -0.0810
@<TRIPOS>BOND
     1     7     8    2
     2     8     9   am
     3     9    11    1
     4    11    12    1
     5    12    13    1
     6    13    14    1
     7    14    15    1
     8    15    16    1
     9    16    17    1
    10     8     1    1
    11     1     2   ar
    12     2     3   ar
    13     3     4   ar
    14     4    21    1
    15    21    23    1
    16    23    24   ar
    17    24    25   ar
    18    25    26    1
    19    25    27   ar
    20    27    28   ar
    21    28    29   ar
    22    29    30    1
    23     4     5   ar
    24     5     6   ar
    25     6    18    1
    26    18    19    1
    27    19    20    1
    28    17    12    1
    29     6     1   ar
    30    20    18    1
    31    29    23   ar
    32     9    10    1
    33    21    22    1
@<TRIPOS>MOLECULE
*****
 30 33 0 0 0
SMALL
GASTEIGER

@<TRIPOS>ATOM
      1 C         139.1986  142.5946  161.9824 C.ar    1  UNL1        0.0686
      2 C         139.4037  142.3621  160.5147 C.ar    1  UNL1        0.1045
      3 N         140.1071  143.3934  159.6831 N.ar    1  UNL1       -0.2290
      4 C         140.6054  144.6573  160.3191 C.ar    1  UNL1        0.1319
      5 C         140.4003  144.8898  161.7867 C.ar    1  UNL1        0.0303
      6 C         139.6969  143.8584  162.6183 C.ar    1  UNL1       -0.0138
      7 O         137.0099  141.6417  163.0077 O.2     1  UNL1       -0.2701
      8 C         138.4953  141.5633  162.8140 C.2     1  UNL1        0.2471
      9 N         139.2773  140.4535  163.4519 N.am    1  UNL1       -0.3008
     10 H         140.2522  140.4021  163.3248 H       1  UNL1        0.1497
     11 C         138.5740  139.4222  164.2836 C.3     1  UNL1        0.0898
     12 C         138.6600  139.4794  165.7801 C.3     1  UNL1        0.0246
     13 C         139.7330  140.2946  166.4390 C.3     1  UNL1        0.0338
     14 C         139.8190  140.3517  167.9354 C.3     1  UNL1        0.1422
     15 O         138.8320  139.5937  168.7729 O.3     1  UNL1       -0.3538
     16 C         137.7590  138.7785  168.1139 C.3     1  UNL1        0.1422
     17 C         137.6730  138.7214  166.6175 C.3     1  UNL1        0.0338
     18 C         139.4918  144.0909  164.0860 C.3     1  UNL1        0.0226
     19 C         139.8031  143.7450  165.5119 C.3     1  UNL1        0.0047
     20 C         138.8253  144.8394  165.2019 C.3     1  UNL1        0.0047
     21 N         141.3087  145.6886  159.4875 N.pl3   1  UNL1       -0.2973
     22 H         141.8138  146.4122  159.9241 H       1  UNL1        0.1536
     23 C         141.2427  145.6175  157.9906 C.ar    1  UNL1        0.0609
     24 C         140.2200  146.4234  157.2459 C.ar    1  UNL1        0.0269
     25 C         140.1539  146.3523  155.7491 C.ar    1  UNL1        0.0590
     26 CL        139.1311  147.1582  155.0044 Cl      1  UNL1       -0.0822
     27 C         141.1105  145.4753  154.9969 C.ar    1  UNL1        0.0123
     28 C         142.1332  144.6694  155.7416 C.ar    1  UNL1        0.0135
     29 C         142.1993  144.7406  157.2385 C.ar    1  UNL1        0.0711
     30 CL        143.2220  143.9346  157.9832 Cl      1  UNL1       -0.0810
@<TRIPOS>BOND
     1     7     8    2
     2     8     9   am
     3     9    11    1
     4    11    12    1
     5    12    13    1
     6    13    14    1
     7    14    15    1
     8    15    16    1
     9    16    17    1
    10     8     1    1
    11     1     2   ar
    12     2     3   ar
    13     3     4   ar
    14     4    21    1
    15    21    23    1
    16    23    24   ar
    17    24    25   ar
    18    25    26    1
    19    25    27   ar
    20    27    28   ar
    21    28    29   ar
    22    29    30    1
    23     4     5   ar
    24     5     6   ar
    25     6    18    1
    26    18    19    1
    27    19    20    1
    28    17    12    1
    29     6     1   ar
    30    20    18    1
    31    29    23   ar
    32     9    10    1
    33    21    22    1
@<TRIPOS>MOLECULE
*****
 30 33 0 0 0
SMALL
GASTEIGER

@<TRIPOS>ATOM
      1 C         139.9653  143.0835  162.4732 C.ar    1  UNL1        0.0686
      2 C         138.9431  141.9859  162.4525 C.ar    1  UNL1        0.1045
      3 N         139.1315  140.7693  163.3093 N.ar    1  UNL1       -0.2290
      4 C         140.3423  140.6501  164.1868 C.ar    1  UNL1        0.1319
      5 C         141.3646  141.7476  164.2074 C.ar    1  UNL1        0.0303
      6 C         141.1760  142.9643  163.3506 C.ar    1  UNL1       -0.0138
      7 O         138.8571  145.3974  162.0638 O.2     1  UNL1       -0.2701
      8 C         139.7768  144.3001  161.6164 C.2     1  UNL1        0.2471
      9 N         140.5081  144.4196  160.3121 N.am    1  UNL1       -0.3008
     10 H         141.1117  143.6995  160.0184 H       1  UNL1        0.1497
     11 C         140.3196  145.6363  159.4553 C.3     1  UNL1        0.0898
     12 C         140.7461  145.6144  158.0173 C.3     1  UNL1        0.0246
     13 C         139.9748  146.3945  156.9943 C.3     1  UNL1        0.0338
     14 C         140.4012  146.3725  155.5564 C.3     1  UNL1        0.1422
     15 O         141.5990  145.5705  155.1415 O.3     1  UNL1       -0.3538
     16 C         142.3703  144.7904  156.1645 C.3     1  UNL1        0.1422
     17 C         141.9438  144.8124  157.6024 C.3     1  UNL1        0.0338
     18 C         142.1983  144.0619  163.3712 C.3     1  UNL1        0.0226
     19 C         142.6600  145.3977  163.8734 C.3     1  UNL1        0.0047
     20 C         143.5071  144.6270  162.9047 C.3     1  UNL1        0.0047
     21 N         140.5308  139.4334  165.0436 N.pl3   1  UNL1       -0.2973
     22 H         140.4635  138.5356  164.6453 H       1  UNL1        0.1536
     23 C         140.8219  139.5846  166.5073 C.ar    1  UNL1        0.0609
     24 C         139.7197  139.9480  167.4575 C.ar    1  UNL1        0.0269
     25 C         140.0107  140.0992  168.9212 C.ar    1  UNL1        0.0590
     26 CL        138.9084  140.4626  169.8715 Cl      1  UNL1       -0.0822
     27 C         141.4040  139.8870  169.4347 C.ar    1  UNL1        0.0123
     28 C         142.5062  139.5236  168.4844 C.ar    1  UNL1        0.0135
     29 C         142.2151  139.3724  167.0207 C.ar    1  UNL1        0.0711
     30 CL        143.3175  139.0090  166.0705 Cl      1  UNL1       -0.0810
@<TRIPOS>BOND
     1     7     8    2
     2     8     9   am
     3     9    11    1
     4    11    12    1
     5    12    13    1
     6    13    14    1
     7    14    15    1
     8    15    16    1
     9    16    17    1
    10     8     1    1
    11     1     2   ar
    12     2     3   ar
    13     3     4   ar
    14     4    21    1
    15    21    23    1
    16    23    24   ar
    17    24    25   ar
    18    25    26    1
    19    25    27   ar
    20    27    28   ar
    21    28    29   ar
    22    29    30    1
    23     4     5   ar
    24     5     6   ar
    25     6    18    1
    26    18    19    1
    27    19    20    1
    28    17    12    1
    29     6     1   ar
    30    20    18    1
    31    29    23   ar
    32     9    10    1
    33    21    22    1
@<TRIPOS>MOLECULE
*****
 30 33 0 0 0
SMALL
GASTEIGER

@<TRIPOS>ATOM
      1 C         138.9326  142.0444  163.2413 C.ar    1  UNL1        0.0686
      2 C         138.1288  140.9258  163.8350 C.ar    1  UNL1        0.1045
      3 N         138.5030  140.3615  165.1735 N.ar    1  UNL1       -0.2290
      4 C         139.6812  140.9159  165.9183 C.ar    1  UNL1        0.1319
      5 C         140.4851  142.0345  165.3245 C.ar    1  UNL1        0.0303
      6 C         140.1107  142.5988  163.9860 C.ar    1  UNL1       -0.0138
      7 O         137.7585  143.8749  161.8198 O.2     1  UNL1       -0.2701
      8 C         138.5583  142.6087  161.9029 C.2     1  UNL1        0.2471
      9 N         138.9839  141.9067  160.6474 N.am    1  UNL1       -0.3008
     10 H         139.5089  141.0757  160.7018 H       1  UNL1        0.1497
     11 C         138.6096  142.4710  159.3089 C.3     1  UNL1        0.0898
     12 C         139.4685  143.5229  158.6717 C.3     1  UNL1        0.0246
     13 C         139.3655  143.7839  157.1982 C.3     1  UNL1        0.0338
     14 C         140.2243  144.8357  156.5610 C.3     1  UNL1        0.1422
     15 O         141.1861  145.6266  157.3973 O.3     1  UNL1       -0.3538
     16 C         141.2891  145.3656  158.8708 C.3     1  UNL1        0.1422
     17 C         140.4303  144.3138  159.5080 C.3     1  UNL1        0.0338
     18 C         140.9146  143.7174  163.3923 C.3     1  UNL1        0.0226
     19 C         142.1433  144.1973  162.6782 C.3     1  UNL1        0.0047
     20 C         141.0782  145.1749  163.0780 C.3     1  UNL1        0.0047
     21 N         140.0555  140.3516  167.2567 N.pl3   1  UNL1       -0.2973
     22 H         139.7674  139.4439  167.5062 H       1  UNL1        0.1536
     23 C         140.8687  141.1704  168.2150 C.ar    1  UNL1        0.0609
     24 C         140.3160  142.4528  168.7623 C.ar    1  UNL1        0.0269
     25 C         141.1292  143.2716  169.7206 C.ar    1  UNL1        0.0590
     26 CL        140.5764  144.5541  170.2680 Cl      1  UNL1       -0.0822
     27 C         142.4952  142.8078  170.1316 C.ar    1  UNL1        0.0123
     28 C         143.0480  141.5253  169.5842 C.ar    1  UNL1        0.0135
     29 C         142.2347  140.7066  168.6259 C.ar    1  UNL1        0.0711
     30 CL        142.7876  139.4241  168.0786 Cl      1  UNL1       -0.0810
@<TRIPOS>BOND
     1     7     8    2
     2     8     9   am
     3     9    11    1
     4    11    12    1
     5    12    13    1
     6    13    14    1
     7    14    15    1
     8    15    16    1
     9    16    17    1
    10     8     1    1
    11     1     2   ar
    12     2     3   ar
    13     3     4   ar
    14     4    21    1
    15    21    23    1
    16    23    24   ar
    17    24    25   ar
    18    25    26    1
    19    25    27   ar
    20    27    28   ar
    21    28    29   ar
    22    29    30    1
    23     4     5   ar
    24     5     6   ar
    25     6    18    1
    26    18    19    1
    27    19    20    1
    28    17    12    1
    29     6     1   ar
    30    20    18    1
    31    29    23   ar
    32     9    10    1
    33    21    22    1
@<TRIPOS>MOLECULE
*****
 30 33 0 0 0
SMALL
GASTEIGER

@<TRIPOS>ATOM
      1 C         139.3048  139.4278  165.1938 C.ar    1  UNL1        0.0686
      2 C         138.9672  138.0928  164.5989 C.ar    1  UNL1        0.1045
      3 N         138.5861  137.9914  163.1517 N.ar    1  UNL1       -0.2290
      4 C         138.5426  139.2249  162.2993 C.ar    1  UNL1        0.1319
      5 C         138.8802  140.5599  162.8942 C.ar    1  UNL1        0.0303
      6 C         139.2613  140.6613  164.3415 C.ar    1  UNL1       -0.0138
      7 O         138.6489  139.3266  167.7057 O.2     1  UNL1       -0.2701
      8 C         139.6859  139.5292  166.6410 C.2     1  UNL1        0.2471
      9 N         141.1041  139.8332  167.0236 N.am    1  UNL1       -0.3008
     10 H         141.7848  139.9662  166.3249 H       1  UNL1        0.1497
     11 C         141.4852  139.9347  168.4708 C.3     1  UNL1        0.0898
     12 C         141.5704  141.2787  169.1316 C.3     1  UNL1        0.0246
     13 C         142.8342  141.6953  169.8239 C.3     1  UNL1        0.0338
     14 C         142.9193  143.0392  170.4846 C.3     1  UNL1        0.1422
     15 O         141.7406  143.9665  170.4530 O.3     1  UNL1       -0.3538
     16 C         140.4769  143.5499  169.7607 C.3     1  UNL1        0.1422
     17 C         140.3918  142.2059  169.1000 C.3     1  UNL1        0.0338
     18 C         139.5989  141.9963  164.9364 C.3     1  UNL1        0.0226
     19 C         140.6175  142.9654  165.4589 C.3     1  UNL1        0.0047
     20 C         139.1649  143.3393  165.4443 C.3     1  UNL1        0.0047
     21 N         138.1615  139.1235  160.8521 N.pl3   1  UNL1       -0.2973
     22 H         137.2170  139.0099  160.5986 H       1  UNL1        0.1536
     23 C         139.2194  139.1952  159.7912 C.ar    1  UNL1        0.0609
     24 C         140.5334  138.5008  159.9941 C.ar    1  UNL1        0.0269
     25 C         141.5913  138.5724  158.9331 C.ar    1  UNL1        0.0590
     26 CL        142.9053  137.8780  159.1361 Cl      1  UNL1       -0.0822
     27 C         141.3353  139.3385  157.6692 C.ar    1  UNL1        0.0123
     28 C         140.0213  140.0330  157.4663 C.ar    1  UNL1        0.0135
     29 C         138.9634  139.9613  158.5273 C.ar    1  UNL1        0.0711
     30 CL        137.6493  140.6557  158.3243 Cl      1  UNL1       -0.0810
@<TRIPOS>BOND
     1     7     8    2
     2     8     9   am
     3     9    11    1
     4    11    12    1
     5    12    13    1
     6    13    14    1
     7    14    15    1
     8    15    16    1
     9    16    17    1
    10     8     1    1
    11     1     2   ar
    12     2     3   ar
    13     3     4   ar
    14     4    21    1
    15    21    23    1
    16    23    24   ar
    17    24    25   ar
    18    25    26    1
    19    25    27   ar
    20    27    28   ar
    21    28    29   ar
    22    29    30    1
    23     4     5   ar
    24     5     6   ar
    25     6    18    1
    26    18    19    1
    27    19    20    1
    28    17    12    1
    29     6     1   ar
    30    20    18    1
    31    29    23   ar
    32     9    10    1
    33    21    22    1
