@<TRIPOS>MOLECULE
*****
 35 38 0 0 0
SMALL
GASTEIGER

@<TRIPOS>ATOM
      1 O         138.7135  139.1365  158.1476 O.2     1  UNL1       -0.2733
      2 C         139.9869  138.4720  157.7153 C.2     1  UNL1        0.2426
      3 N         141.1133  138.3027  158.6913 N.am    1  UNL1       -0.3018
      4 H         141.9490  137.8665  158.4076 H       1  UNL1        0.1495
      5 C         140.9663  138.7978  160.0996 C.3     1  UNL1        0.1035
      6 C         140.6910  138.1550  161.4266 C.3     1  UNL1        0.0933
      7 N         140.7584  139.4980  162.0912 N.3     1  UNL1       -0.2711
      8 C         141.0336  140.1409  160.7642 C.3     1  UNL1        0.0933
      9 C         140.6114  139.9932  163.4995 C.3     1  UNL1        0.0576
     10 C         141.8161  140.0995  164.3867 C.3     1  UNL1        0.0163
     11 C         141.6691  140.5947  165.7950 C.3     1  UNL1        0.0057
     12 C         140.3173  140.9834  166.3160 C.3     1  UNL1        0.0224
     13 C         139.1125  140.8770  165.4288 C.3     1  UNL1        0.0057
     14 C         139.2595  140.3819  164.0206 C.3     1  UNL1        0.0163
     15 C         140.1703  141.4785  167.7243 C.ar    1  UNL1       -0.0225
     16 C         139.6565  140.5595  168.7926 C.ar    1  UNL1       -0.0043
     17 C         139.5095  141.0547  170.2009 C.ar    1  UNL1       -0.0003
     18 C         139.8763  142.4688  170.5408 C.ar    1  UNL1       -0.0000
     19 C         140.3901  143.3879  169.4725 C.ar    1  UNL1       -0.0003
     20 C         140.5371  142.8928  168.0642 C.ar    1  UNL1       -0.0043
     21 C         140.1339  137.9768  156.3071 C.3     1  UNL1        0.1759
     22 N         140.6467  136.5909  156.0491 N.am    1  UNL1       -0.2931
     23 C         142.1217  136.3200  156.0750 C.2     1  UNL1        0.2462
     24 O         143.0842  137.4350  156.3589 O.2     1  UNL1       -0.2701
     25 H         140.0150  135.8591  155.8627 H       1  UNL1        0.1502
     26 C         142.6345  134.9342  155.8169 C.ar    1  UNL1        0.0533
     27 C         142.1960  134.1883  154.5916 C.ar    1  UNL1        0.0045
     28 C         142.7087  132.8025  154.3336 C.ar    1  UNL1        0.0001
     29 C         143.6599  132.1625  155.3009 C.ar    1  UNL1        0.0039
     30 C         144.0984  132.9084  156.5262 C.ar    1  UNL1        0.0716
     31 C         143.5857  134.2942  156.7842 C.ar    1  UNL1        0.0084
     32 C         145.0496  132.2684  157.4935 C.3     1  UNL1        0.4186
     33 F         146.0008  131.6285  158.4609 F       1  UNL1       -0.1659
     34 F         145.2940  131.1562  156.5173 F       1  UNL1       -0.1659
     35 F         144.8051  133.3807  158.4698 F       1  UNL1       -0.1659
@<TRIPOS>BOND
     1     1     2    2
     2     2    21    1
     3    21    22    1
     4    22    23   am
     5    23    24    2
     6    23    26    1
     7    26    27   ar
     8    27    28   ar
     9    28    29   ar
    10    29    30   ar
    11    30    32    1
    12    32    33    1
    13    32    34    1
    14    32    35    1
    15    30    31   ar
    16     2     3   am
    17     3     5    1
    18     5     6    1
    19     6     7    1
    20     9     7    1
    21     9    10    1
    22    10    11    1
    23    11    12    1
    24    12    15    1
    25    15    16   ar
    26    16    17   ar
    27    17    18   ar
    28    18    19   ar
    29    19    20   ar
    30    12    13    1
    31    13    14    1
    32     7     8    1
    33    31    26   ar
    34     8     5    1
    35    14     9    1
    36    20    15   ar
    37    22    25    1
    38     3     4    1
@<TRIPOS>MOLECULE
*****
 35 38 0 0 0
SMALL
GASTEIGER

@<TRIPOS>ATOM
      1 O         138.7688  139.1362  158.5321 O.2     1  UNL1       -0.2733
      2 C         139.9586  138.4404  157.9404 C.2     1  UNL1        0.2426
      3 N         141.2326  138.3347  158.7251 N.am    1  UNL1       -0.3018
      4 H         142.0135  137.8780  158.3367 H       1  UNL1        0.1495
      5 C         141.3168  138.9250  160.1015 C.3     1  UNL1        0.1035
      6 C         141.3234  140.3172  160.6600 C.3     1  UNL1        0.0933
      7 N         141.4360  139.7598  162.0480 N.3     1  UNL1       -0.2711
      8 C         141.4294  138.3677  161.4896 C.3     1  UNL1        0.0933
      9 C         141.5202  140.3501  163.4244 C.3     1  UNL1        0.0576
     10 C         142.8541  140.7230  164.0002 C.3     1  UNL1        0.0163
     11 C         142.9383  141.3133  165.3767 C.3     1  UNL1        0.0057
     12 C         141.6886  141.5308  166.1772 C.3     1  UNL1        0.0224
     13 C         140.3547  141.1579  165.6014 C.3     1  UNL1        0.0057
     14 C         140.2704  140.5676  164.2250 C.3     1  UNL1        0.0163
     15 C         141.7728  142.1210  167.5536 C.ar    1  UNL1       -0.0225
     16 C         140.5912  142.8388  168.1354 C.ar    1  UNL1       -0.0043
     17 C         140.6754  143.4291  169.5119 C.ar    1  UNL1       -0.0003
     18 C         141.9413  143.3016  170.3064 C.ar    1  UNL1       -0.0000
     19 C         143.1230  142.5839  169.7245 C.ar    1  UNL1       -0.0003
     20 C         143.0387  141.9936  168.3481 C.ar    1  UNL1       -0.0043
     21 C         139.8744  137.8501  156.5640 C.3     1  UNL1        0.1759
     22 N         140.4564  136.4945  156.2924 N.am    1  UNL1       -0.2931
     23 C         141.9328  136.3419  156.0754 C.2     1  UNL1        0.2462
     24 O         142.8272  137.5449  156.1300 O.2     1  UNL1       -0.2701
     25 H         139.8694  135.7050  156.2566 H       1  UNL1        0.1502
     26 C         142.5148  134.9863  155.8037 C.ar    1  UNL1        0.0533
     27 C         142.1268  134.2385  154.5627 C.ar    1  UNL1        0.0045
     28 C         142.7088  132.8830  154.2912 C.ar    1  UNL1        0.0001
     29 C         143.6788  132.2753  155.2606 C.ar    1  UNL1        0.0039
     30 C         144.0668  133.0231  156.5016 C.ar    1  UNL1        0.0716
     31 C         143.4848  134.3786  156.7732 C.ar    1  UNL1        0.0084
     32 C         145.0368  132.4154  157.4710 C.3     1  UNL1        0.4186
     33 F         146.0068  131.8077  158.4405 F       1  UNL1       -0.1659
     34 F         145.4585  131.4239  156.4275 F       1  UNL1       -0.1659
     35 F         144.6151  133.4070  158.5146 F       1  UNL1       -0.1659
@<TRIPOS>BOND
     1     1     2    2
     2     2    21    1
     3    21    22    1
     4    22    23   am
     5    23    24    2
     6    23    26    1
     7    26    27   ar
     8    27    28   ar
     9    28    29   ar
    10    29    30   ar
    11    30    32    1
    12    32    33    1
    13    32    34    1
    14    32    35    1
    15    30    31   ar
    16     2     3   am
    17     3     5    1
    18     5     6    1
    19     6     7    1
    20     9     7    1
    21     9    10    1
    22    10    11    1
    23    11    12    1
    24    12    15    1
    25    15    16   ar
    26    16    17   ar
    27    17    18   ar
    28    18    19   ar
    29    19    20   ar
    30    12    13    1
    31    13    14    1
    32     7     8    1
    33    31    26   ar
    34     8     5    1
    35    14     9    1
    36    20    15   ar
    37    22    25    1
    38     3     4    1
@<TRIPOS>MOLECULE
*****
 35 38 0 0 0
SMALL
GASTEIGER

@<TRIPOS>ATOM
      1 O         138.5429  139.4061  158.4930 O.2     1  UNL1       -0.2733
      2 C         139.6893  138.5364  158.0695 C.2     1  UNL1        0.2426
      3 N         140.7659  138.1834  159.0525 N.am    1  UNL1       -0.3018
      4 H         141.5183  137.6125  158.7745 H       1  UNL1        0.1495
      5 C         140.6961  138.7000  160.4590 C.3     1  UNL1        0.1035
      6 C         140.1741  138.1667  161.7602 C.3     1  UNL1        0.0933
      7 N         140.5975  139.4307  162.4481 N.3     1  UNL1       -0.2711
      8 C         141.1195  139.9640  161.1469 C.3     1  UNL1        0.0933
      9 C         140.5277  139.9473  163.8546 C.3     1  UNL1        0.0576
     10 C         139.4602  140.9274  164.2415 C.3     1  UNL1        0.0163
     11 C         139.3904  141.4441  165.6480 C.3     1  UNL1        0.0057
     12 C         140.3882  140.9806  166.6676 C.3     1  UNL1        0.0224
     13 C         141.4557  140.0004  166.2807 C.3     1  UNL1        0.0057
     14 C         141.5255  139.4838  164.8742 C.3     1  UNL1        0.0163
     15 C         140.3184  141.4972  168.0740 C.ar    1  UNL1       -0.0225
     16 C         140.5254  142.9574  168.3478 C.ar    1  UNL1       -0.0043
     17 C         140.4557  143.4740  169.7544 C.ar    1  UNL1       -0.0003
     18 C         140.1789  142.5304  170.8870 C.ar    1  UNL1       -0.0000
     19 C         139.9719  141.0702  170.6133 C.ar    1  UNL1       -0.0003
     20 C         140.0417  140.5536  169.2068 C.ar    1  UNL1       -0.0043
     21 C         139.7590  138.0197  156.6631 C.3     1  UNL1        0.1759
     22 N         140.3008  136.6470  156.3944 N.am    1  UNL1       -0.2931
     23 C         141.7830  136.4202  156.3541 C.2     1  UNL1        0.2462
     24 O         142.7235  137.5662  156.5826 O.2     1  UNL1       -0.2701
     25 H         139.6835  135.8948  156.2444 H       1  UNL1        0.1502
     26 C         142.3248  135.0475  156.0854 C.ar    1  UNL1        0.0533
     27 C         141.7845  134.2382  154.9439 C.ar    1  UNL1        0.0045
     28 C         142.3263  132.8655  154.6752 C.ar    1  UNL1        0.0001
     29 C         143.4083  132.3022  155.5481 C.ar    1  UNL1        0.0039
     30 C         143.9485  133.1115  156.6896 C.ar    1  UNL1        0.0716
     31 C         143.4068  134.4841  156.9583 C.ar    1  UNL1        0.0084
     32 C         145.0305  132.5481  157.5625 C.3     1  UNL1        0.4186
     33 F         146.1125  131.9847  158.4353 F       1  UNL1       -0.1659
     34 F         144.5963  133.4477  158.6814 F       1  UNL1       -0.1659
     35 F         145.4648  131.6485  156.4435 F       1  UNL1       -0.1659
@<TRIPOS>BOND
     1     1     2    2
     2     2    21    1
     3    21    22    1
     4    22    23   am
     5    23    24    2
     6    23    26    1
     7    26    27   ar
     8    27    28   ar
     9    28    29   ar
    10    29    30   ar
    11    30    32    1
    12    32    33    1
    13    32    34    1
    14    32    35    1
    15    30    31   ar
    16     2     3   am
    17     3     5    1
    18     5     6    1
    19     6     7    1
    20     9     7    1
    21     9    10    1
    22    10    11    1
    23    11    12    1
    24    12    15    1
    25    15    16   ar
    26    16    17   ar
    27    17    18   ar
    28    18    19   ar
    29    19    20   ar
    30    12    13    1
    31    13    14    1
    32     7     8    1
    33    31    26   ar
    34     8     5    1
    35    14     9    1
    36    20    15   ar
    37    22    25    1
    38     3     4    1
@<TRIPOS>MOLECULE
*****
 35 38 0 0 0
SMALL
GASTEIGER

@<TRIPOS>ATOM
      1 O         141.0625  138.4351  158.5195 O.2     1  UNL1       -0.2733
      2 C         142.3749  137.7153  158.4215 C.2     1  UNL1        0.2426
      3 N         143.2609  137.6038  159.6266 N.am    1  UNL1       -0.3018
      4 H         144.1223  137.1314  159.5623 H       1  UNL1        0.1495
      5 C         142.8346  138.2119  160.9299 C.3     1  UNL1        0.1035
      6 C         143.2615  139.4040  161.7340 C.3     1  UNL1        0.0933
      7 N         142.2317  139.0720  162.7729 N.3     1  UNL1       -0.2711
      8 C         141.8048  137.8799  161.9688 C.3     1  UNL1        0.0933
      9 C         141.8054  139.6802  164.0761 C.3     1  UNL1        0.0576
     10 C         142.4543  139.2428  165.3558 C.3     1  UNL1        0.0163
     11 C         142.0279  139.8510  166.6590 C.3     1  UNL1        0.0057
     12 C         140.9528  140.8966  166.6825 C.3     1  UNL1        0.0224
     13 C         140.3039  141.3341  165.4029 C.3     1  UNL1        0.0057
     14 C         140.7302  140.7259  164.0997 C.3     1  UNL1        0.0163
     15 C         140.5265  141.5048  167.9857 C.ar    1  UNL1       -0.0225
     16 C         140.9390  142.9051  168.3305 C.ar    1  UNL1       -0.0043
     17 C         140.5127  143.5133  169.6337 C.ar    1  UNL1       -0.0003
     18 C         139.6738  142.7211  170.5922 C.ar    1  UNL1       -0.0000
     19 C         139.2612  141.3208  170.2475 C.ar    1  UNL1       -0.0003
     20 C         139.6875  140.7126  168.9443 C.ar    1  UNL1       -0.0043
     21 C         142.8013  137.1072  157.1183 C.3     1  UNL1        0.1759
     22 N         142.9549  135.6198  156.9994 N.am    1  UNL1       -0.2931
     23 C         142.0343  134.8395  156.1087 C.2     1  UNL1        0.2462
     24 O         140.9599  135.5465  155.3368 O.2     1  UNL1       -0.2701
     25 H         143.6601  135.1557  157.5060 H       1  UNL1        0.1502
     26 C         142.1879  133.3521  155.9898 C.ar    1  UNL1        0.0533
     27 C         141.3886  132.5945  154.9713 C.ar    1  UNL1        0.0045
     28 C         141.5423  131.1072  154.8525 C.ar    1  UNL1        0.0001
     29 C         142.4953  130.3774  155.7521 C.ar    1  UNL1        0.0039
     30 C         143.2946  131.1349  156.7705 C.ar    1  UNL1        0.0716
     31 C         143.1409  132.6223  156.8893 C.ar    1  UNL1        0.0084
     32 C         144.2476  130.4051  157.6701 C.3     1  UNL1        0.4186
     33 F         145.2005  129.6753  158.5696 F       1  UNL1       -0.1659
     34 F         145.3347  131.3709  157.3019 F       1  UNL1       -0.1659
     35 F         143.1605  129.4394  158.0382 F       1  UNL1       -0.1659
@<TRIPOS>BOND
     1     1     2    2
     2     2    21    1
     3    21    22    1
     4    22    23   am
     5    23    24    2
     6    23    26    1
     7    26    27   ar
     8    27    28   ar
     9    28    29   ar
    10    29    30   ar
    11    30    32    1
    12    32    33    1
    13    32    34    1
    14    32    35    1
    15    30    31   ar
    16     2     3   am
    17     3     5    1
    18     5     6    1
    19     6     7    1
    20     9     7    1
    21     9    10    1
    22    10    11    1
    23    11    12    1
    24    12    15    1
    25    15    16   ar
    26    16    17   ar
    27    17    18   ar
    28    18    19   ar
    29    19    20   ar
    30    12    13    1
    31    13    14    1
    32     7     8    1
    33    31    26   ar
    34     8     5    1
    35    14     9    1
    36    20    15   ar
    37    22    25    1
    38     3     4    1
@<TRIPOS>MOLECULE
*****
 35 38 0 0 0
SMALL
GASTEIGER

@<TRIPOS>ATOM
      1 O         142.8206  140.3077  158.3798 O.2     1  UNL1       -0.2733
      2 C         143.0495  138.8553  158.0828 C.2     1  UNL1        0.2426
      3 N         143.1293  137.8638  159.2054 N.am    1  UNL1       -0.3018
      4 H         143.2796  136.9105  159.0105 H       1  UNL1        0.1495
      5 C         142.9803  138.3246  160.6252 C.3     1  UNL1        0.1035
      6 C         141.9422  138.1495  161.6937 C.3     1  UNL1        0.0933
      7 N         142.7695  138.9761  162.6329 N.3     1  UNL1       -0.2711
      8 C         143.8076  139.1512  161.5644 C.3     1  UNL1        0.0933
      9 C         142.6204  139.4369  164.0526 C.3     1  UNL1        0.0576
     10 C         141.8617  140.6944  164.3572 C.3     1  UNL1        0.0163
     11 C         141.7126  141.1552  165.7770 C.3     1  UNL1        0.0057
     12 C         142.3223  140.3583  166.8920 C.3     1  UNL1        0.0224
     13 C         143.0811  139.1007  166.5873 C.3     1  UNL1        0.0057
     14 C         143.2301  138.6400  165.1677 C.3     1  UNL1        0.0163
     15 C         142.1733  140.8190  168.3116 C.ar    1  UNL1       -0.0225
     16 C         141.2708  140.0750  169.2508 C.ar    1  UNL1       -0.0043
     17 C         141.1217  140.5358  170.6705 C.ar    1  UNL1       -0.0003
     18 C         141.8752  141.7406  171.1510 C.ar    1  UNL1       -0.0000
     19 C         142.7776  142.4846  170.2118 C.ar    1  UNL1       -0.0003
     20 C         142.9267  142.0238  168.7922 C.ar    1  UNL1       -0.0043
     21 C         143.1985  138.3945  156.6632 C.3     1  UNL1        0.1759
     22 N         143.6093  136.9814  156.3725 N.am    1  UNL1       -0.2931
     23 C         142.5653  135.9253  156.1610 C.2     1  UNL1        0.2462
     24 O         141.1106  136.2823  156.2401 O.2     1  UNL1       -0.2701
     25 H         144.5641  136.7471  156.3206 H       1  UNL1        0.1502
     26 C         142.9761  134.5122  155.8703 C.ar    1  UNL1        0.0533
     27 C         142.5702  133.8634  154.5803 C.ar    1  UNL1        0.0045
     28 C         142.9810  132.4504  154.2897 C.ar    1  UNL1        0.0001
     29 C         143.7977  131.6861  155.2891 C.ar    1  UNL1        0.0039
     30 C         144.2036  132.3349  156.5792 C.ar    1  UNL1        0.0716
     31 C         143.7928  133.7479  156.8698 C.ar    1  UNL1        0.0084
     32 C         145.0203  131.5706  157.5786 C.3     1  UNL1        0.4186
     33 F         145.8371  130.8064  158.5780 F       1  UNL1       -0.1659
     34 F         145.3107  132.8445  158.3154 F       1  UNL1       -0.1659
     35 F         144.7300  130.2967  156.8418 F       1  UNL1       -0.1659
@<TRIPOS>BOND
     1     1     2    2
     2     2    21    1
     3    21    22    1
     4    22    23   am
     5    23    24    2
     6    23    26    1
     7    26    27   ar
     8    27    28   ar
     9    28    29   ar
    10    29    30   ar
    11    30    32    1
    12    32    33    1
    13    32    34    1
    14    32    35    1
    15    30    31   ar
    16     2     3   am
    17     3     5    1
    18     5     6    1
    19     6     7    1
    20     9     7    1
    21     9    10    1
    22    10    11    1
    23    11    12    1
    24    12    15    1
    25    15    16   ar
    26    16    17   ar
    27    17    18   ar
    28    18    19   ar
    29    19    20   ar
    30    12    13    1
    31    13    14    1
    32     7     8    1
    33    31    26   ar
    34     8     5    1
    35    14     9    1
    36    20    15   ar
    37    22    25    1
    38     3     4    1
@<TRIPOS>MOLECULE
*****
 35 38 0 0 0
SMALL
GASTEIGER

@<TRIPOS>ATOM
      1 O         141.7649  140.2775  158.0363 O.2     1  UNL1       -0.2733
      2 C         142.9256  139.3359  157.9090 C.2     1  UNL1        0.2426
      3 N         143.6114  138.8202  159.1393 N.am    1  UNL1       -0.3018
      4 H         144.3732  138.2022  159.0558 H       1  UNL1        0.1495
      5 C         143.1365  139.2461  160.4970 C.3     1  UNL1        0.1035
      6 C         143.7459  139.9884  161.6492 C.3     1  UNL1        0.0933
      7 N         142.4649  139.8484  162.4169 N.3     1  UNL1       -0.2711
      8 C         141.8555  139.1061  161.2647 C.3     1  UNL1        0.0933
      9 C         141.9901  140.2743  163.7745 C.3     1  UNL1        0.0576
     10 C         142.7527  139.8630  164.9990 C.3     1  UNL1        0.0163
     11 C         142.2778  140.2889  166.3566 C.3     1  UNL1        0.0057
     12 C         141.0403  141.1261  166.4898 C.3     1  UNL1        0.0224
     13 C         140.2777  141.5374  165.2653 C.3     1  UNL1        0.0057
     14 C         140.7526  141.1115  163.9077 C.3     1  UNL1        0.0163
     15 C         140.5655  141.5520  167.8474 C.ar    1  UNL1       -0.0225
     16 C         139.8192  140.5853  168.7183 C.ar    1  UNL1       -0.0043
     17 C         139.3443  141.0112  170.0759 C.ar    1  UNL1       -0.0003
     18 C         139.6158  142.4038  170.5626 C.ar    1  UNL1       -0.0000
     19 C         140.3621  143.3705  169.6917 C.ar    1  UNL1       -0.0003
     20 C         140.8370  142.9447  168.3341 C.ar    1  UNL1       -0.0043
     21 C         143.4005  138.9100  156.5514 C.3     1  UNL1        0.1759
     22 N         143.7369  137.4714  156.2917 N.am    1  UNL1       -0.2931
     23 C         142.6438  136.4864  156.0003 C.2     1  UNL1        0.2462
     24 O         141.2144  136.9399  155.9687 O.2     1  UNL1       -0.2701
     25 H         144.6751  137.1738  156.3125 H       1  UNL1        0.1502
     26 C         142.9802  135.0478  155.7406 C.ar    1  UNL1        0.0533
     27 C         142.4683  134.3692  154.5047 C.ar    1  UNL1        0.0045
     28 C         142.8047  132.9307  154.2451 C.ar    1  UNL1        0.0001
     29 C         143.6530  132.1708  155.2213 C.ar    1  UNL1        0.0039
     30 C         144.1649  132.8494  156.4571 C.ar    1  UNL1        0.0716
     31 C         143.8285  134.2879  156.7168 C.ar    1  UNL1        0.0084
     32 C         145.0132  132.0895  157.4333 C.3     1  UNL1        0.4186
     33 F         145.8615  131.3296  158.4095 F       1  UNL1       -0.1659
     34 F         144.8044  133.1682  158.4544 F       1  UNL1       -0.1659
     35 F         145.2219  131.0108  156.4121 F       1  UNL1       -0.1659
@<TRIPOS>BOND
     1     1     2    2
     2     2    21    1
     3    21    22    1
     4    22    23   am
     5    23    24    2
     6    23    26    1
     7    26    27   ar
     8    27    28   ar
     9    28    29   ar
    10    29    30   ar
    11    30    32    1
    12    32    33    1
    13    32    34    1
    14    32    35    1
    15    30    31   ar
    16     2     3   am
    17     3     5    1
    18     5     6    1
    19     6     7    1
    20     9     7    1
    21     9    10    1
    22    10    11    1
    23    11    12    1
    24    12    15    1
    25    15    16   ar
    26    16    17   ar
    27    17    18   ar
    28    18    19   ar
    29    19    20   ar
    30    12    13    1
    31    13    14    1
    32     7     8    1
    33    31    26   ar
    34     8     5    1
    35    14     9    1
    36    20    15   ar
    37    22    25    1
    38     3     4    1
@<TRIPOS>MOLECULE
*****
 35 38 0 0 0
SMALL
GASTEIGER

@<TRIPOS>ATOM
      1 O         137.4762  142.6649  157.6811 O.2     1  UNL1       -0.2733
      2 C         137.0840  141.2540  157.3562 C.2     1  UNL1        0.2426
      3 N         137.2913  140.1660  158.3678 N.am    1  UNL1       -0.3018
      4 H         137.0339  139.2400  158.1545 H       1  UNL1        0.1495
      5 C         137.8907  140.4890  159.7044 C.3     1  UNL1        0.1035
      6 C         138.9902  141.3895  160.1840 C.3     1  UNL1        0.0933
      7 N         138.7385  140.9457  161.5946 N.3     1  UNL1       -0.2711
      8 C         137.6390  140.0451  161.1149 C.3     1  UNL1        0.0933
      9 C         139.3379  141.2686  162.9311 C.3     1  UNL1        0.0576
     10 C         138.6875  142.2884  163.8181 C.3     1  UNL1        0.0163
     11 C         139.2870  142.6114  165.1547 C.3     1  UNL1        0.0057
     12 C         140.5369  141.9145  165.6042 C.3     1  UNL1        0.0224
     13 C         141.1873  140.8947  164.7171 C.3     1  UNL1        0.0057
     14 C         140.5879  140.5717  163.3806 C.3     1  UNL1        0.0163
     15 C         141.1363  142.2374  166.9407 C.ar    1  UNL1       -0.0225
     16 C         142.5830  141.9421  167.2049 C.ar    1  UNL1       -0.0043
     17 C         143.1825  142.2651  168.5415 C.ar    1  UNL1       -0.0003
     18 C         142.3352  142.8833  169.6138 C.ar    1  UNL1       -0.0000
     19 C         140.8885  143.1787  169.3496 C.ar    1  UNL1       -0.0003
     20 C         140.2891  142.8557  168.0131 C.ar    1  UNL1       -0.0043
     21 C         136.4846  140.9310  156.0197 C.3     1  UNL1        0.1759
     22 N         135.0261  141.1792  155.7720 N.am    1  UNL1       -0.2931
     23 C         133.9939  140.3529  156.4802 C.2     1  UNL1        0.2462
     24 O         134.4200  139.2782  157.4360 O.2     1  UNL1       -0.2701
     25 H         134.7464  141.8846  155.1447 H       1  UNL1        0.1502
     26 C         132.5354  140.6011  156.2326 C.ar    1  UNL1        0.0533
     27 C         132.1097  141.6392  155.2370 C.ar    1  UNL1        0.0045
     28 C         130.6513  141.8874  154.9894 C.ar    1  UNL1        0.0001
     29 C         129.6185  141.0975  155.7374 C.ar    1  UNL1        0.0039
     30 C         130.0442  140.0594  156.7330 C.ar    1  UNL1        0.0716
     31 C         131.5026  139.8112  156.9805 C.ar    1  UNL1        0.0084
     32 C         129.0114  139.2695  157.4809 C.3     1  UNL1        0.4186
     33 F         127.9786  138.4796  158.2289 F       1  UNL1       -0.1659
     34 F         129.9337  138.0869  157.5055 F       1  UNL1       -0.1659
     35 F         128.0891  140.4522  157.4564 F       1  UNL1       -0.1659
@<TRIPOS>BOND
     1     1     2    2
     2     2    21    1
     3    21    22    1
     4    22    23   am
     5    23    24    2
     6    23    26    1
     7    26    27   ar
     8    27    28   ar
     9    28    29   ar
    10    29    30   ar
    11    30    32    1
    12    32    33    1
    13    32    34    1
    14    32    35    1
    15    30    31   ar
    16     2     3   am
    17     3     5    1
    18     5     6    1
    19     6     7    1
    20     9     7    1
    21     9    10    1
    22    10    11    1
    23    11    12    1
    24    12    15    1
    25    15    16   ar
    26    16    17   ar
    27    17    18   ar
    28    18    19   ar
    29    19    20   ar
    30    12    13    1
    31    13    14    1
    32     7     8    1
    33    31    26   ar
    34     8     5    1
    35    14     9    1
    36    20    15   ar
    37    22    25    1
    38     3     4    1
@<TRIPOS>MOLECULE
*****
 35 38 0 0 0
SMALL
GASTEIGER

@<TRIPOS>ATOM
      1 O         142.8033  137.5158  158.8609 O.2     1  UNL1       -0.2733
      2 C         141.6268  137.9565  158.0415 C.2     1  UNL1        0.2426
      3 N         140.6258  138.9123  158.6197 N.am    1  UNL1       -0.3018
      4 H         139.8536  139.2015  158.0819 H       1  UNL1        0.1495
      5 C         140.8014  139.4276  160.0175 C.3     1  UNL1        0.1035
      6 C         140.2556  139.0512  161.3631 C.3     1  UNL1        0.0933
      7 N         141.0497  140.1562  161.9943 N.3     1  UNL1       -0.2711
      8 C         141.5955  140.5325  160.6488 C.3     1  UNL1        0.0933
      9 C         141.2253  140.6713  163.3920 C.3     1  UNL1        0.0576
     10 C         140.6196  141.9850  163.7888 C.3     1  UNL1        0.0163
     11 C         140.7952  142.5002  165.1866 C.3     1  UNL1        0.0057
     12 C         141.5764  141.7017  166.1876 C.3     1  UNL1        0.0224
     13 C         142.1821  140.3880  165.7908 C.3     1  UNL1        0.0057
     14 C         142.0066  139.8729  164.3931 C.3     1  UNL1        0.0163
     15 C         141.7520  142.2169  167.5853 C.ar    1  UNL1       -0.0225
     16 C         143.0726  142.0653  168.2802 C.ar    1  UNL1       -0.0043
     17 C         143.2482  142.5805  169.6780 C.ar    1  UNL1       -0.0003
     18 C         142.1030  143.2473  170.3809 C.ar    1  UNL1       -0.0000
     19 C         140.7824  143.3989  169.6860 C.ar    1  UNL1       -0.0003
     20 C         140.6068  142.8837  168.2883 C.ar    1  UNL1       -0.0043
     21 C         141.4511  137.4413  156.6437 C.3     1  UNL1        0.1759
     22 N         141.5322  135.9684  156.3716 N.am    1  UNL1       -0.2931
     23 C         142.8648  135.3215  156.1360 C.2     1  UNL1        0.2462
     24 O         144.1164  136.1474  156.1725 O.2     1  UNL1       -0.2701
     25 H         140.7108  135.4263  156.3476 H       1  UNL1        0.1502
     26 C         142.9459  133.8485  155.8638 C.ar    1  UNL1        0.0533
     27 C         144.2221  133.1061  156.1285 C.ar    1  UNL1        0.0045
     28 C         144.3031  131.6332  155.8563 C.ar    1  UNL1        0.0001
     29 C         143.1080  130.9029  155.3194 C.ar    1  UNL1        0.0039
     30 C         141.8318  131.6453  155.0547 C.ar    1  UNL1        0.0716
     31 C         141.7508  133.1182  155.3269 C.ar    1  UNL1        0.0084
     32 C         140.6367  130.9150  154.5178 C.3     1  UNL1        0.4186
     33 F         139.4416  130.1846  153.9810 F       1  UNL1       -0.1659
     34 F         140.8921  129.7912  155.4780 F       1  UNL1       -0.1659
     35 F         140.3813  132.0387  153.5577 F       1  UNL1       -0.1659
@<TRIPOS>BOND
     1     1     2    2
     2     2    21    1
     3    21    22    1
     4    22    23   am
     5    23    24    2
     6    23    26    1
     7    26    27   ar
     8    27    28   ar
     9    28    29   ar
    10    29    30   ar
    11    30    32    1
    12    32    33    1
    13    32    34    1
    14    32    35    1
    15    30    31   ar
    16     2     3   am
    17     3     5    1
    18     5     6    1
    19     6     7    1
    20     9     7    1
    21     9    10    1
    22    10    11    1
    23    11    12    1
    24    12    15    1
    25    15    16   ar
    26    16    17   ar
    27    17    18   ar
    28    18    19   ar
    29    19    20   ar
    30    12    13    1
    31    13    14    1
    32     7     8    1
    33    31    26   ar
    34     8     5    1
    35    14     9    1
    36    20    15   ar
    37    22    25    1
    38     3     4    1
@<TRIPOS>MOLECULE
*****
 35 38 0 0 0
SMALL
GASTEIGER

@<TRIPOS>ATOM
      1 O         144.3163  139.7287  159.0899 O.2     1  UNL1       -0.2733
      2 C         144.0848  140.6887  157.9609 C.2     1  UNL1        0.2426
      3 N         143.5587  140.1896  156.6479 N.am    1  UNL1       -0.3018
      4 H         143.4068  140.8197  155.9068 H       1  UNL1        0.1495
      5 C         143.2641  138.7303  156.4638 C.3     1  UNL1        0.1035
      6 C         142.3052  137.7558  157.0810 C.3     1  UNL1        0.0933
      7 N         142.8474  136.6666  156.2037 N.3     1  UNL1       -0.2711
      8 C         143.8063  137.6411  155.5865 C.3     1  UNL1        0.0933
      9 C         142.5527  135.2074  156.0197 C.3     1  UNL1        0.0576
     10 C         143.1729  134.1956  156.9370 C.3     1  UNL1        0.0163
     11 C         142.8782  132.7363  156.7530 C.3     1  UNL1        0.0057
     12 C         141.9634  132.2890  155.6517 C.3     1  UNL1        0.0224
     13 C         141.3432  133.3008  154.7344 C.3     1  UNL1        0.0057
     14 C         141.6378  134.7600  154.9184 C.3     1  UNL1        0.0163
     15 C         141.6687  130.8298  155.4678 C.ar    1  UNL1       -0.0225
     16 C         142.6255  129.7997  155.9908 C.ar    1  UNL1       -0.0043
     17 C         142.3307  128.3404  155.8068 C.ar    1  UNL1       -0.0003
     18 C         141.0794  127.9113  155.0998 C.ar    1  UNL1       -0.0000
     19 C         140.1227  128.9414  154.5768 C.ar    1  UNL1       -0.0003
     20 C         140.4173  130.4006  154.7607 C.ar    1  UNL1       -0.0043
     21 C         144.3794  142.1479  158.1448 C.3     1  UNL1        0.1759
     22 N         144.1204  142.8043  159.4685 N.am    1  UNL1       -0.2931
     23 C         142.7356  143.2603  159.8213 C.2     1  UNL1        0.2462
     24 O         141.6099  143.0599  158.8505 O.2     1  UNL1       -0.2701
     25 H         144.8592  142.9359  160.1057 H       1  UNL1        0.1502
     26 C         142.4766  143.9168  161.1450 C.ar    1  UNL1        0.0533
     27 C         141.2507  144.7595  161.3371 C.ar    1  UNL1        0.0045
     28 C         140.9917  145.4158  162.6607 C.ar    1  UNL1        0.0001
     29 C         141.9586  145.2295  163.7923 C.ar    1  UNL1        0.0039
     30 C         143.1845  144.3868  163.6002 C.ar    1  UNL1        0.0716
     31 C         143.4435  143.7304  162.2765 C.ar    1  UNL1        0.0084
     32 C         144.1514  144.2004  164.7317 C.3     1  UNL1        0.4186
     33 F         145.1183  144.0140  165.8632 F       1  UNL1       -0.1659
     34 F         144.1080  142.7154  164.5242 F       1  UNL1       -0.1659
     35 F         144.1948  145.6853  164.9392 F       1  UNL1       -0.1659
@<TRIPOS>BOND
     1     1     2    2
     2     2    21    1
     3    21    22    1
     4    22    23   am
     5    23    24    2
     6    23    26    1
     7    26    27   ar
     8    27    28   ar
     9    28    29   ar
    10    29    30   ar
    11    30    32    1
    12    32    33    1
    13    32    34    1
    14    32    35    1
    15    30    31   ar
    16     2     3   am
    17     3     5    1
    18     5     6    1
    19     6     7    1
    20     9     7    1
    21     9    10    1
    22    10    11    1
    23    11    12    1
    24    12    15    1
    25    15    16   ar
    26    16    17   ar
    27    17    18   ar
    28    18    19   ar
    29    19    20   ar
    30    12    13    1
    31    13    14    1
    32     7     8    1
    33    31    26   ar
    34     8     5    1
    35    14     9    1
    36    20    15   ar
    37    22    25    1
    38     3     4    1
