@<TRIPOS>MOLECULE
*****
 40 42 0 0 0
SMALL
GASTEIGER

@<TRIPOS>ATOM
      1 C         143.4056  140.2524  165.8496 C.3     1  UNL1        0.2016
      2 C         143.1111  141.4413  164.9837 C.3     1  UNL1        0.0679
      3 C         143.3261  141.3612  163.5013 C.3     1  UNL1        0.0973
      4 N         143.8355  140.0922  162.8848 N.am    1  UNL1       -0.2762
      5 C         144.0504  140.0122  161.4025 C.2     1  UNL1        0.2301
      6 O         144.5599  138.7431  160.7859 O.2     1  UNL1       -0.2745
      7 C         144.1300  138.9033  163.7507 C.3     1  UNL1        0.1323
      8 C         143.9151  138.9834  165.2330 C.3     1  UNL1        0.2202
      9 F         144.2096  137.7944  166.0989 F       1  UNL1       -0.2316
     10 O         143.1907  140.3325  167.3319 O.3     1  UNL1       -0.4760
     11 C         139.2767  139.7201  167.5677 C.ar    1  UNL1        0.1414
     12 C         139.0365  139.9800  169.0253 C.ar    1  UNL1        0.0372
     13 C         140.1810  140.3574  169.9185 C.ar    1  UNL1        0.0107
     14 C         141.5657  140.4749  169.3540 C.ar    1  UNL1        0.0872
     15 C         141.8059  140.2150  167.8964 C.ar    1  UNL1        0.1458
     16 C         140.6615  139.8376  167.0033 C.ar    1  UNL1        0.0739
     17 C         142.7102  140.8523  170.2472 C.2     1  UNL1        0.2457
     18 N         143.4291  139.7955  171.0321 N.am    1  UNL1       -0.3252
     19 O         143.1357  142.2866  170.3554 O.2     1  UNL1       -0.2703
     20 H         143.1498  138.8541  170.9611 H       1  UNL1        0.1453
     21 H         144.1803  140.0432  171.6183 H       1  UNL1        0.1453
     22 O         138.1322  139.3426  166.6746 O.3     1  UNL1       -0.4800
     23 C         138.5607  137.6541  165.4642 C.3     1  UNL1        0.0462
     24 C         138.3660  139.1194  165.2098 C.3     1  UNL1        0.1601
     25 C         138.1712  140.5848  164.9555 C.3     1  UNL1        0.0462
     26 C         138.5997  138.8963  163.7450 C.3     1  UNL1        0.1771
     27 O         138.8905  137.5165  163.2336 O.3     1  UNL1       -0.3786
     28 H         139.7445  137.2160  163.5818 H       1  UNL1        0.2106
     29 C         143.7559  141.2011  160.5366 C.3     1  UNL1        0.1116
     30 C         142.5382  142.0369  160.7991 C.ar    1  UNL1       -0.0129
     31 C         142.6802  143.5062  161.0653 C.ar    1  UNL1       -0.0007
     32 C         141.4626  144.3419  161.3277 C.ar    1  UNL1        0.0369
     33 C         140.1030  143.7083  161.3240 C.ar    1  UNL1        0.1468
     34 C         139.9610  142.2390  161.0579 C.ar    1  UNL1        0.0369
     35 C         141.1787  141.4032  160.7954 C.ar    1  UNL1       -0.0007
     36 O         138.8853  144.5441  161.5865 O.3     1  UNL1       -0.4045
     37 C         138.2195  144.4981  162.9299 C.3     1  UNL1        0.5753
     38 F         137.5536  144.4522  164.2732 F       1  UNL1       -0.1328
     39 F         139.1454  145.5692  163.4254 F       1  UNL1       -0.1328
     40 F         137.2936  143.4271  162.4343 F       1  UNL1       -0.1328
@<TRIPOS>BOND
     1    23    24    1
     2    24    25    1
     3    24    26    1
     4    26    27    1
     5    24    22    1
     6    22    11    1
     7    11    12   ar
     8    12    13   ar
     9    13    14   ar
    10    14    17    1
    11    17    18   am
    12    17    19    2
    13    14    15   ar
    14    15    10    1
    15     1    10    1
    16     1     2    1
    17     2     3    1
    18     3     4    1
    19     4     5   am
    20     5     6    2
    21     5    29    1
    22    29    30    1
    23    30    31   ar
    24    31    32   ar
    25    32    33   ar
    26    33    36    1
    27    36    37    1
    28    37    38    1
    29    37    39    1
    30    37    40    1
    31    33    34   ar
    32    34    35   ar
    33     4     7    1
    34     7     8    1
    35     8     9    1
    36    15    16   ar
    37    16    11   ar
    38     8     1    1
    39    35    30   ar
    40    27    28    1
    41    18    20    1
    42    18    21    1
@<TRIPOS>MOLECULE
*****
 40 42 0 0 0
SMALL
GASTEIGER

@<TRIPOS>ATOM
      1 C         143.2584  140.6208  166.4014 C.3     1  UNL1        0.2016
      2 C         143.5340  141.9597  165.7839 C.3     1  UNL1        0.0679
      3 C         143.8948  142.0556  164.3310 C.3     1  UNL1        0.0973
      4 N         143.9800  140.8125  163.4958 N.am    1  UNL1       -0.2762
      5 C         144.3408  140.9084  162.0430 C.2     1  UNL1        0.2301
      6 O         144.4260  139.6654  161.2077 O.2     1  UNL1       -0.2745
      7 C         143.7044  139.4736  164.1134 C.3     1  UNL1        0.1323
      8 C         143.3436  139.3778  165.5661 C.3     1  UNL1        0.2202
      9 F         143.0680  138.0389  166.1837 F       1  UNL1       -0.2316
     10 O         142.8976  140.5249  167.8542 O.3     1  UNL1       -0.4760
     11 C         139.0261  139.6796  167.6382 C.ar    1  UNL1        0.1414
     12 C         138.6166  139.8585  169.0701 C.ar    1  UNL1        0.0372
     13 C         139.6341  140.2595  170.0967 C.ar    1  UNL1        0.0107
     14 C         141.0610  140.4817  169.6914 C.ar    1  UNL1        0.0872
     15 C         141.4705  140.3028  168.2595 C.ar    1  UNL1        0.1458
     16 C         140.4531  139.9018  167.2329 C.ar    1  UNL1        0.0739
     17 C         142.0785  140.8827  170.7180 C.2     1  UNL1        0.2457
     18 N         143.3909  140.1604  170.7953 N.am    1  UNL1       -0.3252
     19 O         141.7837  142.0060  171.6673 O.2     1  UNL1       -0.2703
     20 H         143.5844  139.4231  170.1722 H       1  UNL1        0.1453
     21 H         144.0587  140.4237  171.4691 H       1  UNL1        0.1453
     22 O         138.0086  139.2786  166.6116 O.3     1  UNL1       -0.4800
     23 C         138.7188  137.6151  165.5034 C.3     1  UNL1        0.0462
     24 C         138.4272  139.0525  165.1891 C.3     1  UNL1        0.1601
     25 C         138.1357  140.4899  164.8749 C.3     1  UNL1        0.0462
     26 C         138.8459  138.8265  163.7665 C.3     1  UNL1        0.1771
     27 O         138.6904  137.4700  163.1455 O.3     1  UNL1       -0.3786
     28 H         139.2803  136.8413  163.5901 H       1  UNL1        0.2106
     29 C         144.6164  142.2473  161.4255 C.3     1  UNL1        0.1116
     30 C         143.5352  142.9617  160.6700 C.ar    1  UNL1       -0.0129
     31 C         143.3790  142.7401  159.1947 C.ar    1  UNL1       -0.0007
     32 C         142.2978  143.4544  158.4393 C.ar    1  UNL1        0.0369
     33 C         141.3728  144.3903  159.1591 C.ar    1  UNL1        0.1468
     34 C         141.5289  144.6120  160.6344 C.ar    1  UNL1        0.0369
     35 C         142.6101  143.8977  161.3899 C.ar    1  UNL1       -0.0007
     36 O         140.2915  145.1047  158.4037 O.3     1  UNL1       -0.4045
     37 C         140.6274  145.8716  157.1591 C.3     1  UNL1        0.5753
     38 F         140.9632  146.6385  155.9144 F       1  UNL1       -0.1328
     39 F         139.3796  145.3564  156.5050 F       1  UNL1       -0.1328
     40 F         141.8751  146.3868  157.8131 F       1  UNL1       -0.1328
@<TRIPOS>BOND
     1    23    24    1
     2    24    25    1
     3    24    26    1
     4    26    27    1
     5    24    22    1
     6    22    11    1
     7    11    12   ar
     8    12    13   ar
     9    13    14   ar
    10    14    17    1
    11    17    18   am
    12    17    19    2
    13    14    15   ar
    14    15    10    1
    15     1    10    1
    16     1     2    1
    17     2     3    1
    18     3     4    1
    19     4     5   am
    20     5     6    2
    21     5    29    1
    22    29    30    1
    23    30    31   ar
    24    31    32   ar
    25    32    33   ar
    26    33    36    1
    27    36    37    1
    28    37    38    1
    29    37    39    1
    30    37    40    1
    31    33    34   ar
    32    34    35   ar
    33     4     7    1
    34     7     8    1
    35     8     9    1
    36    15    16   ar
    37    16    11   ar
    38     8     1    1
    39    35    30   ar
    40    27    28    1
    41    18    20    1
    42    18    21    1
@<TRIPOS>MOLECULE
*****
 40 42 0 0 0
SMALL
GASTEIGER

@<TRIPOS>ATOM
      1 C         138.4920  140.5778  159.8279 C.3     1  UNL1        0.2016
      2 C         137.7170  140.5325  161.1114 C.3     1  UNL1        0.0679
      3 C         138.1387  139.6019  162.2097 C.3     1  UNL1        0.0973
      4 N         139.3353  138.7166  162.0244 N.am    1  UNL1       -0.2762
      5 C         139.7569  137.7860  163.1227 C.2     1  UNL1        0.2301
      6 O         140.9536  136.9006  162.9374 O.2     1  UNL1       -0.2745
      7 C         140.1102  138.7619  160.7409 C.3     1  UNL1        0.1323
      8 C         139.6886  139.6925  159.6427 C.3     1  UNL1        0.2202
      9 F         140.4636  139.7378  158.3592 F       1  UNL1       -0.2316
     10 O         138.0703  141.5084  158.7297 O.3     1  UNL1       -0.4760
     11 C         140.5510  144.5702  159.2014 C.ar    1  UNL1        0.1414
     12 C         140.5105  145.1813  157.8321 C.ar    1  UNL1        0.0372
     13 C         139.6567  144.5681  156.7621 C.ar    1  UNL1        0.0107
     14 C         138.8433  143.3439  157.0612 C.ar    1  UNL1        0.0872
     15 C         138.8838  142.7328  158.4305 C.ar    1  UNL1        0.1458
     16 C         139.7376  143.3459  159.5005 C.ar    1  UNL1        0.0739
     17 C         137.9895  142.7307  155.9912 C.2     1  UNL1        0.2457
     18 N         136.5251  142.5136  156.2327 N.am    1  UNL1       -0.3252
     19 O         138.6000  142.3347  154.6796 O.2     1  UNL1       -0.2703
     20 H         136.1243  142.7735  157.0936 H       1  UNL1        0.1453
     21 H         135.9647  142.1112  155.5304 H       1  UNL1        0.1453
     22 O         141.4048  145.1833  160.2714 O.3     1  UNL1       -0.4800
     23 C         139.9836  145.8582  161.6943 C.3     1  UNL1        0.0462
     24 C         141.1261  144.8866  161.7151 C.3     1  UNL1        0.1601
     25 C         142.2687  143.9150  161.7360 C.3     1  UNL1        0.0462
     26 C         140.8475  144.5899  163.1589 C.3     1  UNL1        0.1771
     27 O         139.9319  145.4811  163.9446 O.3     1  UNL1       -0.3786
     28 H         140.3339  146.3593  164.0340 H       1  UNL1        0.2106
     29 C         138.9819  137.7407  164.4062 C.3     1  UNL1        0.1116
     30 C         139.4308  138.5561  165.5825 C.ar    1  UNL1       -0.0129
     31 C         140.8583  139.0058  165.6824 C.ar    1  UNL1       -0.0007
     32 C         141.3072  139.8212  166.8586 C.ar    1  UNL1        0.0369
     33 C         140.3286  140.1869  167.9350 C.ar    1  UNL1        0.1468
     34 C         138.9011  139.7372  167.8351 C.ar    1  UNL1        0.0369
     35 C         138.4522  138.9218  166.6588 C.ar    1  UNL1       -0.0007
     36 O         140.7775  141.0023  169.1113 O.3     1  UNL1       -0.4045
     37 C         140.4821  142.4721  169.1615 C.3     1  UNL1        0.5753
     38 F         140.1866  143.9418  169.2118 F       1  UNL1       -0.1328
     39 F         139.3128  142.2062  170.0627 F       1  UNL1       -0.1328
     40 F         141.6514  142.7379  168.2604 F       1  UNL1       -0.1328
@<TRIPOS>BOND
     1    23    24    1
     2    24    25    1
     3    24    26    1
     4    26    27    1
     5    24    22    1
     6    22    11    1
     7    11    12   ar
     8    12    13   ar
     9    13    14   ar
    10    14    17    1
    11    17    18   am
    12    17    19    2
    13    14    15   ar
    14    15    10    1
    15     1    10    1
    16     1     2    1
    17     2     3    1
    18     3     4    1
    19     4     5   am
    20     5     6    2
    21     5    29    1
    22    29    30    1
    23    30    31   ar
    24    31    32   ar
    25    32    33   ar
    26    33    36    1
    27    36    37    1
    28    37    38    1
    29    37    39    1
    30    37    40    1
    31    33    34   ar
    32    34    35   ar
    33     4     7    1
    34     7     8    1
    35     8     9    1
    36    15    16   ar
    37    16    11   ar
    38     8     1    1
    39    35    30   ar
    40    27    28    1
    41    18    20    1
    42    18    21    1
@<TRIPOS>MOLECULE
*****
 40 42 0 0 0
SMALL
GASTEIGER

@<TRIPOS>ATOM
      1 C         142.7663  139.1573  163.0723 C.3     1  UNL1        0.2016
      2 C         141.4289  139.8244  163.1995 C.3     1  UNL1        0.0679
      3 C         140.4311  139.7231  162.0841 C.3     1  UNL1        0.0973
      4 N         140.7707  138.9546  160.8415 N.am    1  UNL1       -0.2762
      5 C         139.7728  138.8534  159.7261 C.2     1  UNL1        0.2301
      6 O         140.1124  138.0849  158.4834 O.2     1  UNL1       -0.2745
      7 C         142.1081  138.2875  160.7142 C.3     1  UNL1        0.1323
      8 C         143.1059  138.3888  161.8296 C.3     1  UNL1        0.2202
      9 F         144.4433  137.7216  161.7023 F       1  UNL1       -0.2316
     10 O         143.7641  139.2586  164.1876 O.3     1  UNL1       -0.4760
     11 C         142.4516  140.2824  167.7903 C.ar    1  UNL1        0.1414
     12 C         142.8273  141.7341  167.8268 C.ar    1  UNL1        0.0372
     13 C         143.5153  142.3606  166.6504 C.ar    1  UNL1        0.0107
     14 C         143.8275  141.5355  165.4373 C.ar    1  UNL1        0.0872
     15 C         143.4519  140.0838  165.4007 C.ar    1  UNL1        0.1458
     16 C         142.7639  139.4572  166.5772 C.ar    1  UNL1        0.0739
     17 C         144.5155  142.1620  164.2608 C.2     1  UNL1        0.2457
     18 N         145.8752  141.6841  163.8451 N.am    1  UNL1       -0.3252
     19 O         143.8438  143.2665  163.5000 O.2     1  UNL1       -0.2703
     20 H         146.3161  140.9592  164.3445 H       1  UNL1        0.1453
     21 H         146.3267  142.0954  163.0730 H       1  UNL1        0.1453
     22 O         141.7636  139.6558  168.9667 O.3     1  UNL1       -0.4800
     23 C         139.8015  139.9004  168.1986 C.3     1  UNL1        0.0462
     24 C         140.4859  140.2432  169.4886 C.3     1  UNL1        0.1601
     25 C         141.1703  140.5860  170.7785 C.3     1  UNL1        0.0462
     26 C         139.2081  140.8305  170.0105 C.3     1  UNL1        0.1771
     27 O         138.0787  139.9299  170.4145 O.3     1  UNL1       -0.3786
     28 H         137.7376  139.4683  169.6325 H       1  UNL1        0.2106
     29 C         138.4354  139.5205  159.8534 C.3     1  UNL1        0.1116
     30 C         138.2945  140.7676  160.6751 C.ar    1  UNL1       -0.0129
     31 C         137.5515  140.7276  161.9775 C.ar    1  UNL1       -0.0007
     32 C         137.4105  141.9745  162.7992 C.ar    1  UNL1        0.0369
     33 C         138.0127  143.2615  162.3184 C.ar    1  UNL1        0.1468
     34 C         138.7557  143.3015  161.0160 C.ar    1  UNL1        0.0369
     35 C         138.8966  142.0545  160.1943 C.ar    1  UNL1       -0.0007
     36 O         137.8718  144.5085  163.1401 O.3     1  UNL1       -0.4045
     37 C         138.5039  144.5873  164.4981 C.3     1  UNL1        0.5753
     38 F         139.1360  144.6660  165.8561 F       1  UNL1       -0.1328
     39 F         137.1672  144.3452  165.1343 F       1  UNL1       -0.1328
     40 F         139.8405  144.8293  163.8619 F       1  UNL1       -0.1328
@<TRIPOS>BOND
     1    23    24    1
     2    24    25    1
     3    24    26    1
     4    26    27    1
     5    24    22    1
     6    22    11    1
     7    11    12   ar
     8    12    13   ar
     9    13    14   ar
    10    14    17    1
    11    17    18   am
    12    17    19    2
    13    14    15   ar
    14    15    10    1
    15     1    10    1
    16     1     2    1
    17     2     3    1
    18     3     4    1
    19     4     5   am
    20     5     6    2
    21     5    29    1
    22    29    30    1
    23    30    31   ar
    24    31    32   ar
    25    32    33   ar
    26    33    36    1
    27    36    37    1
    28    37    38    1
    29    37    39    1
    30    37    40    1
    31    33    34   ar
    32    34    35   ar
    33     4     7    1
    34     7     8    1
    35     8     9    1
    36    15    16   ar
    37    16    11   ar
    38     8     1    1
    39    35    30   ar
    40    27    28    1
    41    18    20    1
    42    18    21    1
@<TRIPOS>MOLECULE
*****
 40 42 0 0 0
SMALL
GASTEIGER

@<TRIPOS>ATOM
      1 C         142.2427  139.1258  159.6298 C.3     1  UNL1        0.2016
      2 C         143.4055  139.4898  160.5048 C.3     1  UNL1        0.0679
      3 C         143.3482  139.2195  161.9792 C.3     1  UNL1        0.0973
      4 N         142.1283  138.5852  162.5785 N.am    1  UNL1       -0.2762
      5 C         142.0711  138.3149  164.0528 C.2     1  UNL1        0.2301
      6 O         140.8511  137.6806  164.6523 O.2     1  UNL1       -0.2745
      7 C         140.9655  138.2212  161.7036 C.3     1  UNL1        0.1323
      8 C         141.0227  138.4915  160.2293 C.3     1  UNL1        0.2202
      9 F         139.8600  138.1275  159.3544 F       1  UNL1       -0.2316
     10 O         142.3000  139.3961  158.1555 O.3     1  UNL1       -0.4760
     11 C         142.8597  135.8971  156.3684 C.ar    1  UNL1        0.1414
     12 C         143.9028  136.2607  155.3537 C.ar    1  UNL1        0.0372
     13 C         144.4117  137.6695  155.2730 C.ar    1  UNL1        0.0107
     14 C         143.8774  138.7146  156.2069 C.ar    1  UNL1        0.0872
     15 C         142.8343  138.3510  157.2216 C.ar    1  UNL1        0.1458
     16 C         142.3254  136.9422  157.3023 C.ar    1  UNL1        0.0739
     17 C         144.3862  140.1234  156.1261 C.2     1  UNL1        0.2457
     18 N         145.7963  140.4358  156.5309 N.am    1  UNL1       -0.3252
     19 O         143.4850  141.2196  155.6405 O.2     1  UNL1       -0.2703
     20 H         146.3879  139.7163  156.8496 H       1  UNL1        0.1453
     21 H         146.1303  141.3604  156.4779 H       1  UNL1        0.1453
     22 O         142.3509  134.4884  156.4492 O.3     1  UNL1       -0.4800
     23 C         142.7475  133.0481  154.9432 C.3     1  UNL1        0.0462
     24 C         143.3026  133.3378  156.3062 C.3     1  UNL1        0.1601
     25 C         143.8577  133.6276  157.6692 C.3     1  UNL1        0.0462
     26 C         144.2543  132.1873  156.1632 C.3     1  UNL1        0.1771
     27 O         145.6953  132.3540  156.5448 O.3     1  UNL1       -0.3786
     28 H         146.1172  132.9891  155.9451 H       1  UNL1        0.2106
     29 C         143.2338  138.6789  164.9278 C.3     1  UNL1        0.1116
     30 C         143.0648  139.7004  166.0132 C.ar    1  UNL1       -0.0129
     31 C         142.7847  139.2609  167.4197 C.ar    1  UNL1       -0.0007
     32 C         142.6157  140.2823  168.5051 C.ar    1  UNL1        0.0369
     33 C         142.7269  141.7433  168.1839 C.ar    1  UNL1        0.1468
     34 C         143.0070  142.1828  166.7774 C.ar    1  UNL1        0.0369
     35 C         143.1760  141.1614  165.6920 C.ar    1  UNL1       -0.0007
     36 O         142.5579  142.7648  169.2693 O.3     1  UNL1       -0.4045
     37 C         141.2468  142.8857  169.9879 C.3     1  UNL1        0.5753
     38 F         139.9356  143.0066  170.7065 F       1  UNL1       -0.1328
     39 F         140.6470  143.5466  168.7823 F       1  UNL1       -0.1328
     40 F         141.8466  142.2248  171.1935 F       1  UNL1       -0.1328
@<TRIPOS>BOND
     1    23    24    1
     2    24    25    1
     3    24    26    1
     4    26    27    1
     5    24    22    1
     6    22    11    1
     7    11    12   ar
     8    12    13   ar
     9    13    14   ar
    10    14    17    1
    11    17    18   am
    12    17    19    2
    13    14    15   ar
    14    15    10    1
    15     1    10    1
    16     1     2    1
    17     2     3    1
    18     3     4    1
    19     4     5   am
    20     5     6    2
    21     5    29    1
    22    29    30    1
    23    30    31   ar
    24    31    32   ar
    25    32    33   ar
    26    33    36    1
    27    36    37    1
    28    37    38    1
    29    37    39    1
    30    37    40    1
    31    33    34   ar
    32    34    35   ar
    33     4     7    1
    34     7     8    1
    35     8     9    1
    36    15    16   ar
    37    16    11   ar
    38     8     1    1
    39    35    30   ar
    40    27    28    1
    41    18    20    1
    42    18    21    1
@<TRIPOS>MOLECULE
*****
 40 42 0 0 0
SMALL
GASTEIGER

@<TRIPOS>ATOM
      1 C         139.9750  141.0939  163.4972 C.3     1  UNL1        0.2016
      2 C         140.9308  141.2800  162.3562 C.3     1  UNL1        0.0679
      3 C         140.9519  142.5748  161.5991 C.3     1  UNL1        0.0973
      4 N         140.0173  143.6834  161.9830 N.am    1  UNL1       -0.2762
      5 C         140.0385  144.9782  161.2259 C.2     1  UNL1        0.2301
      6 O         139.1038  146.0868  161.6098 O.2     1  UNL1       -0.2745
      7 C         139.0615  143.4973  163.1240 C.3     1  UNL1        0.1323
      8 C         139.0404  142.2026  163.8810 C.3     1  UNL1        0.2202
      9 F         138.0846  142.0165  165.0220 F       1  UNL1       -0.2316
     10 O         139.9539  139.7992  164.2542 O.3     1  UNL1       -0.4760
     11 C         141.7022  139.8683  167.8163 C.ar    1  UNL1        0.1414
     12 C         142.9390  139.0655  167.5407 C.ar    1  UNL1        0.0372
     13 C         143.1807  138.5073  166.1696 C.ar    1  UNL1        0.0107
     14 C         142.1857  138.7518  165.0741 C.ar    1  UNL1        0.0872
     15 C         140.9490  139.5546  165.3498 C.ar    1  UNL1        0.1458
     16 C         140.7072  140.1128  166.7209 C.ar    1  UNL1        0.0739
     17 C         142.4274  138.1936  163.7030 C.2     1  UNL1        0.2457
     18 N         141.4462  137.2320  163.1010 N.am    1  UNL1       -0.3252
     19 O         143.6503  138.5971  162.9338 O.2     1  UNL1       -0.2703
     20 H         140.6435  136.9671  163.6058 H       1  UNL1        0.1453
     21 H         141.6049  136.8656  162.2011 H       1  UNL1        0.1453
     22 O         141.4605  140.4265  169.1875 O.3     1  UNL1       -0.4800
     23 C         139.5981  141.2401  169.7951 C.3     1  UNL1        0.0462
     24 C         140.9100  141.8127  169.3466 C.3     1  UNL1        0.1601
     25 C         142.2218  142.3852  168.8980 C.3     1  UNL1        0.0462
     26 C         140.3594  143.1989  169.5056 C.3     1  UNL1        0.1771
     27 O         141.1216  144.2228  170.2934 O.3     1  UNL1       -0.3786
     28 H         141.1563  143.9540  171.2248 H       1  UNL1        0.2106
     29 C         140.9943  145.1643  160.0849 C.3     1  UNL1        0.1116
     30 C         140.5176  144.9976  158.6724 C.ar    1  UNL1       -0.0129
     31 C         140.9078  145.9990  157.6261 C.ar    1  UNL1       -0.0007
     32 C         140.4312  145.8323  156.2137 C.ar    1  UNL1        0.0369
     33 C         139.5644  144.6642  155.8476 C.ar    1  UNL1        0.1468
     34 C         139.1742  143.6628  156.8939 C.ar    1  UNL1        0.0369
     35 C         139.6508  143.8294  158.3063 C.ar    1  UNL1       -0.0007
     36 O         139.0877  144.4975  154.4351 O.3     1  UNL1       -0.4045
     37 C         137.6699  144.0886  154.1653 C.3     1  UNL1        0.5753
     38 F         136.2522  143.6797  153.8955 F       1  UNL1       -0.1328
     39 F         137.1919  145.4236  154.6543 F       1  UNL1       -0.1328
     40 F         138.1480  142.7536  153.6763 F       1  UNL1       -0.1328
@<TRIPOS>BOND
     1    23    24    1
     2    24    25    1
     3    24    26    1
     4    26    27    1
     5    24    22    1
     6    22    11    1
     7    11    12   ar
     8    12    13   ar
     9    13    14   ar
    10    14    17    1
    11    17    18   am
    12    17    19    2
    13    14    15   ar
    14    15    10    1
    15     1    10    1
    16     1     2    1
    17     2     3    1
    18     3     4    1
    19     4     5   am
    20     5     6    2
    21     5    29    1
    22    29    30    1
    23    30    31   ar
    24    31    32   ar
    25    32    33   ar
    26    33    36    1
    27    36    37    1
    28    37    38    1
    29    37    39    1
    30    37    40    1
    31    33    34   ar
    32    34    35   ar
    33     4     7    1
    34     7     8    1
    35     8     9    1
    36    15    16   ar
    37    16    11   ar
    38     8     1    1
    39    35    30   ar
    40    27    28    1
    41    18    20    1
    42    18    21    1
@<TRIPOS>MOLECULE
*****
 40 42 0 0 0
SMALL
GASTEIGER

@<TRIPOS>ATOM
      1 C         141.5040  144.5049  161.3609 C.3     1  UNL1        0.2016
      2 C         141.3280  144.8028  162.8205 C.3     1  UNL1        0.0679
      3 C         142.2931  144.2414  163.8222 C.3     1  UNL1        0.0973
      4 N         143.4342  143.3821  163.3644 N.am    1  UNL1       -0.2762
      5 C         144.3992  142.8208  164.3662 C.2     1  UNL1        0.2301
      6 O         145.5404  141.9615  163.9084 O.2     1  UNL1       -0.2745
      7 C         143.6102  143.0843  161.9049 C.3     1  UNL1        0.1323
      8 C         142.6452  143.6456  160.9031 C.3     1  UNL1        0.2202
      9 F         142.8212  143.3478  159.4436 F       1  UNL1       -0.2316
     10 O         140.5390  145.0663  160.3592 O.3     1  UNL1       -0.4760
     11 C         138.6333  142.0176  158.6786 C.ar    1  UNL1        0.1414
     12 C         138.7330  142.3860  157.2280 C.ar    1  UNL1        0.0372
     13 C         139.4347  143.6477  156.8210 C.ar    1  UNL1        0.0107
     14 C         140.0367  144.5411  157.8647 C.ar    1  UNL1        0.0872
     15 C         139.9370  144.1728  159.3154 C.ar    1  UNL1        0.1458
     16 C         139.2353  142.9111  159.7223 C.ar    1  UNL1        0.0739
     17 C         140.7384  145.8029  157.4578 C.2     1  UNL1        0.2457
     18 N         142.1234  146.0860  157.9594 N.am    1  UNL1       -0.3252
     19 O         140.0552  146.7815  156.5494 O.2     1  UNL1       -0.2703
     20 H         142.5719  145.4437  158.5556 H       1  UNL1        0.1453
     21 H         142.5840  146.9141  157.6923 H       1  UNL1        0.1453
     22 O         137.9316  140.7559  159.0855 O.3     1  UNL1       -0.4800
     23 C         139.5702  139.4414  158.7913 C.3     1  UNL1        0.0462
     24 C         138.6427  139.7415  159.9312 C.3     1  UNL1        0.1601
     25 C         137.7151  140.0417  161.0712 C.3     1  UNL1        0.0462
     26 C         139.3538  138.7271  160.7771 C.3     1  UNL1        0.1771
     27 O         138.5682  137.6920  161.5262 O.3     1  UNL1       -0.3786
     28 H         138.0314  138.1246  162.2085 H       1  UNL1        0.2106
     29 C         144.2231  143.1186  165.8257 C.3     1  UNL1        0.1116
     30 C         143.3593  142.2322  166.6732 C.ar    1  UNL1       -0.0129
     31 C         143.1795  142.5328  168.1317 C.ar    1  UNL1       -0.0007
     32 C         142.3157  141.6464  168.9792 C.ar    1  UNL1        0.0369
     33 C         141.6318  140.4595  168.3682 C.ar    1  UNL1        0.1468
     34 C         141.8117  140.1589  166.9096 C.ar    1  UNL1        0.0369
     35 C         142.6754  141.0453  166.0622 C.ar    1  UNL1       -0.0007
     36 O         140.7680  139.5731  169.2156 O.3     1  UNL1       -0.4045
     37 C         139.4469  140.0734  169.7198 C.3     1  UNL1        0.5753
     38 F         138.1257  140.5737  170.2240 F       1  UNL1       -0.1328
     39 F         139.8077  139.6291  171.1063 F       1  UNL1       -0.1328
     40 F         139.0860  140.5177  168.3333 F       1  UNL1       -0.1328
@<TRIPOS>BOND
     1    23    24    1
     2    24    25    1
     3    24    26    1
     4    26    27    1
     5    24    22    1
     6    22    11    1
     7    11    12   ar
     8    12    13   ar
     9    13    14   ar
    10    14    17    1
    11    17    18   am
    12    17    19    2
    13    14    15   ar
    14    15    10    1
    15     1    10    1
    16     1     2    1
    17     2     3    1
    18     3     4    1
    19     4     5   am
    20     5     6    2
    21     5    29    1
    22    29    30    1
    23    30    31   ar
    24    31    32   ar
    25    32    33   ar
    26    33    36    1
    27    36    37    1
    28    37    38    1
    29    37    39    1
    30    37    40    1
    31    33    34   ar
    32    34    35   ar
    33     4     7    1
    34     7     8    1
    35     8     9    1
    36    15    16   ar
    37    16    11   ar
    38     8     1    1
    39    35    30   ar
    40    27    28    1
    41    18    20    1
    42    18    21    1
@<TRIPOS>MOLECULE
*****
 40 42 0 0 0
SMALL
GASTEIGER

@<TRIPOS>ATOM
      1 C         138.0356  141.6148  161.2655 C.3     1  UNL1        0.2016
      2 C         137.8680  142.0984  162.6755 C.3     1  UNL1        0.0679
      3 C         138.0205  141.1408  163.8199 C.3     1  UNL1        0.0973
      4 N         138.3406  139.6996  163.5544 N.am    1  UNL1       -0.2762
      5 C         138.4931  138.7421  164.6988 C.2     1  UNL1        0.2301
      6 O         138.8133  137.3008  164.4333 O.2     1  UNL1       -0.2745
      7 C         138.5082  139.2160  162.1444 C.3     1  UNL1        0.1323
      8 C         138.3557  140.1736  161.0000 C.3     1  UNL1        0.2202
      9 F         138.5233  139.6899  159.5900 F       1  UNL1       -0.2316
     10 O         137.8831  142.5723  160.1210 O.3     1  UNL1       -0.4760
     11 C         141.5546  143.6746  159.0938 C.ar    1  UNL1        0.1414
     12 C         141.4500  143.6491  157.5977 C.ar    1  UNL1        0.0372
     13 C         140.1565  143.2647  156.9427 C.ar    1  UNL1        0.0107
     14 C         138.9675  142.9058  157.7838 C.ar    1  UNL1        0.0872
     15 C         139.0721  142.9313  159.2799 C.ar    1  UNL1        0.1458
     16 C         140.3656  143.3157  159.9349 C.ar    1  UNL1        0.0739
     17 C         137.6740  142.5214  157.1287 C.2     1  UNL1        0.2457
     18 N         136.8825  143.5468  156.3725 N.am    1  UNL1       -0.3252
     19 O         137.1720  141.1115  157.2300 O.2     1  UNL1       -0.2703
     20 H         137.2120  144.4722  156.3061 H       1  UNL1        0.1453
     21 H         136.0335  143.2945  155.9426 H       1  UNL1        0.1453
     22 O         142.8481  144.0590  159.7488 O.3     1  UNL1       -0.4800
     23 C         142.9903  143.9738  161.8636 C.3     1  UNL1        0.0462
     24 C         143.4963  143.1297  160.7317 C.3     1  UNL1        0.1601
     25 C         144.0022  142.2855  159.5997 C.3     1  UNL1        0.0462
     26 C         144.1446  142.2002  161.7145 C.3     1  UNL1        0.1771
     27 O         145.6336  142.2182  161.8940 O.3     1  UNL1       -0.3786
     28 H         146.0614  141.9153  161.0778 H       1  UNL1        0.2106
     29 C         138.3255  139.2257  166.1088 C.3     1  UNL1        0.1116
     30 C         139.5305  139.5859  166.9264 C.ar    1  UNL1       -0.0129
     31 C         139.3607  140.1129  168.3204 C.ar    1  UNL1       -0.0007
     32 C         140.5656  140.4731  169.1380 C.ar    1  UNL1        0.0369
     33 C         141.9403  140.3063  168.5615 C.ar    1  UNL1        0.1468
     34 C         142.1101  139.7793  167.1674 C.ar    1  UNL1        0.0369
     35 C         140.9052  139.4191  166.3499 C.ar    1  UNL1       -0.0007
     36 O         143.1452  140.6666  169.3791 O.3     1  UNL1       -0.4045
     37 C         143.2348  142.0156  170.0287 C.3     1  UNL1        0.5753
     38 F         143.3244  143.3647  170.6783 F       1  UNL1       -0.1328
     39 F         143.9471  142.5497  168.8214 F       1  UNL1       -0.1328
     40 F         142.5225  141.4816  171.2359 F       1  UNL1       -0.1328
@<TRIPOS>BOND
     1    23    24    1
     2    24    25    1
     3    24    26    1
     4    26    27    1
     5    24    22    1
     6    22    11    1
     7    11    12   ar
     8    12    13   ar
     9    13    14   ar
    10    14    17    1
    11    17    18   am
    12    17    19    2
    13    14    15   ar
    14    15    10    1
    15     1    10    1
    16     1     2    1
    17     2     3    1
    18     3     4    1
    19     4     5   am
    20     5     6    2
    21     5    29    1
    22    29    30    1
    23    30    31   ar
    24    31    32   ar
    25    32    33   ar
    26    33    36    1
    27    36    37    1
    28    37    38    1
    29    37    39    1
    30    37    40    1
    31    33    34   ar
    32    34    35   ar
    33     4     7    1
    34     7     8    1
    35     8     9    1
    36    15    16   ar
    37    16    11   ar
    38     8     1    1
    39    35    30   ar
    40    27    28    1
    41    18    20    1
    42    18    21    1
@<TRIPOS>MOLECULE
*****
 40 42 0 0 0
SMALL
GASTEIGER

@<TRIPOS>ATOM
      1 C         138.4960  140.1301  159.1158 C.3     1  UNL1        0.2016
      2 C         138.0749  139.6356  160.4679 C.3     1  UNL1        0.0679
      3 C         137.8851  140.6062  161.5958 C.3     1  UNL1        0.0973
      4 N         138.1163  142.0712  161.3715 N.am    1  UNL1       -0.2762
      5 C         137.9265  143.0416  162.4994 C.2     1  UNL1        0.2301
      6 O         138.1577  144.5067  162.2752 O.2     1  UNL1       -0.2745
      7 C         138.5374  142.5657  160.0194 C.3     1  UNL1        0.1323
      8 C         138.7272  141.5952  158.8916 C.3     1  UNL1        0.2202
      9 F         139.1483  142.0897  157.5395 F       1  UNL1       -0.2316
     10 O         138.6858  139.1597  157.9880 O.3     1  UNL1       -0.4760
     11 C         142.4649  138.0322  158.4324 C.ar    1  UNL1        0.1414
     12 C         142.7948  137.5905  157.0375 C.ar    1  UNL1        0.0372
     13 C         141.7551  137.6718  155.9593 C.ar    1  UNL1        0.0107
     14 C         140.3855  138.1948  156.2761 C.ar    1  UNL1        0.0872
     15 C         140.0555  138.6366  157.6711 C.ar    1  UNL1        0.1458
     16 C         141.0952  138.5553  158.7492 C.ar    1  UNL1        0.0739
     17 C         139.3458  138.2761  155.1980 C.2     1  UNL1        0.2457
     18 N         138.0431  137.5496  155.3560 N.am    1  UNL1       -0.3252
     19 O         139.6088  139.0840  153.9618 O.2     1  UNL1       -0.2703
     20 H         137.8704  137.0194  156.1674 H       1  UNL1        0.1453
     21 H         137.3607  137.6030  154.6484 H       1  UNL1        0.1453
     22 O         143.5046  137.9509  159.5106 O.3     1  UNL1       -0.4800
     23 C         143.9208  140.0300  159.4473 C.3     1  UNL1        0.0462
     24 C         143.6114  139.0428  160.5334 C.3     1  UNL1        0.1601
     25 C         143.3019  138.0557  161.6196 C.3     1  UNL1        0.0462
     26 C         143.7181  140.1348  161.5564 C.3     1  UNL1        0.1771
     27 O         145.0318  140.4089  162.2265 O.3     1  UNL1       -0.3786
     28 H         145.2801  139.6481  162.7747 H       1  UNL1        0.2106
     29 C         137.5054  142.5471  163.8515 C.3     1  UNL1        0.1116
     30 C         138.5417  142.1638  164.8661 C.ar    1  UNL1       -0.0129
     31 C         138.6411  140.7430  165.3365 C.ar    1  UNL1       -0.0007
     32 C         139.6774  140.3596  166.3510 C.ar    1  UNL1        0.0369
     33 C         140.6141  141.3971  166.8951 C.ar    1  UNL1        0.1468
     34 C         140.5147  142.8180  166.4246 C.ar    1  UNL1        0.0369
     35 C         139.4785  143.2013  165.4101 C.ar    1  UNL1       -0.0007
     36 O         141.6504  141.0138  167.9096 O.3     1  UNL1       -0.4045
     37 C         142.4947  139.7927  167.6948 C.3     1  UNL1        0.5753
     38 F         143.3389  138.5716  167.4800 F       1  UNL1       -0.1328
     39 F         143.0205  140.3807  166.4189 F       1  UNL1       -0.1328
     40 F         141.9689  139.2047  168.9706 F       1  UNL1       -0.1328
@<TRIPOS>BOND
     1    23    24    1
     2    24    25    1
     3    24    26    1
     4    26    27    1
     5    24    22    1
     6    22    11    1
     7    11    12   ar
     8    12    13   ar
     9    13    14   ar
    10    14    17    1
    11    17    18   am
    12    17    19    2
    13    14    15   ar
    14    15    10    1
    15     1    10    1
    16     1     2    1
    17     2     3    1
    18     3     4    1
    19     4     5   am
    20     5     6    2
    21     5    29    1
    22    29    30    1
    23    30    31   ar
    24    31    32   ar
    25    32    33   ar
    26    33    36    1
    27    36    37    1
    28    37    38    1
    29    37    39    1
    30    37    40    1
    31    33    34   ar
    32    34    35   ar
    33     4     7    1
    34     7     8    1
    35     8     9    1
    36    15    16   ar
    37    16    11   ar
    38     8     1    1
    39    35    30   ar
    40    27    28    1
    41    18    20    1
    42    18    21    1
