@<TRIPOS>MOLECULE
*****
 28 31 0 0 0
SMALL
GASTEIGER

@<TRIPOS>ATOM
      1 N         141.0739  145.2513  160.1564 N.am    1  UNL1       -0.2743
      2 C         139.9726  145.9820  160.8659 C.3     1  UNL1        0.0957
      3 C         139.9659  145.5336  162.2974 C.3     1  UNL1        0.0468
      4 C         141.0632  144.5259  162.4726 C.3     1  UNL1        0.1367
      5 C         141.7479  144.3515  161.1495 C.2     1  UNL1        0.2404
      6 O         142.9038  143.4376  160.8686 O.2     1  UNL1       -0.2734
      7 N         141.4140  143.8172  163.7471 N.3     1  UNL1       -0.2665
      8 C         140.3295  143.3939  164.6929 C.3     1  UNL1        0.0728
      9 C         140.6804  142.6851  165.9675 C.3     1  UNL1        0.0217
     10 C         142.1158  142.3997  166.2963 C.3     1  UNL1        0.0251
     11 C         143.2004  142.8230  165.3505 C.3     1  UNL1        0.0217
     12 C         142.8494  143.5318  164.0759 C.3     1  UNL1        0.0728
     13 C         142.4666  141.6909  167.5709 C.ar    1  UNL1       -0.0222
     14 C         142.0935  140.2498  167.7549 C.ar    1  UNL1       -0.0012
     15 C         142.4444  139.5410  169.0295 C.ar    1  UNL1        0.0363
     16 C         143.1684  140.2735  170.1200 C.ar    1  UNL1        0.1337
     17 O         143.5193  139.5647  171.3946 O.3     1  UNL1       -0.5055
     18 C         143.5415  141.7146  169.9361 C.ar    1  UNL1        0.0363
     19 C         143.1907  142.4234  168.6616 C.ar    1  UNL1       -0.0012
     20 H         143.2862  138.6645  171.5096 H       1  UNL1        0.2922
     21 C         141.4374  145.3953  158.7083 C.3     1  UNL1        0.1202
     22 C         137.2585  144.6149  154.4743 C.3     1  UNL1        0.0310
     23 C         138.3032  144.8100  155.5328 C.ar    1  UNL1       -0.0219
     24 C         138.9016  146.1674  155.7549 C.ar    1  UNL1       -0.0045
     25 C         139.9463  146.3625  156.8134 C.ar    1  UNL1       -0.0029
     26 C         140.3927  145.2002  157.6498 C.ar    1  UNL1       -0.0024
     27 C         139.7944  143.8428  157.4277 C.ar    1  UNL1       -0.0029
     28 C         138.7496  143.6477  156.3692 C.ar    1  UNL1       -0.0045
@<TRIPOS>BOND
     1    22    23    1
     2    23    24   ar
     3    24    25   ar
     4    25    26   ar
     5    26    21    1
     6    21     1    1
     7     1     2    1
     8     2     3    1
     9     3     4    1
    10     4     7    1
    11     7     8    1
    12     8     9    1
    13     9    10    1
    14    10    13    1
    15    13    14   ar
    16    14    15   ar
    17    15    16   ar
    18    16    17    1
    19    16    18   ar
    20    18    19   ar
    21    10    11    1
    22    11    12    1
    23     4     5    1
    24     5     6    2
    25    26    27   ar
    26    27    28   ar
    27    28    23   ar
    28     5     1   am
    29    12     7    1
    30    19    13   ar
    31    17    20    1
@<TRIPOS>MOLECULE
*****
 28 31 0 0 0
SMALL
GASTEIGER

@<TRIPOS>ATOM
      1 N         141.9502  137.9204  158.5441 N.am    1  UNL1       -0.2743
      2 C         140.5505  138.4523  158.4553 C.3     1  UNL1        0.0957
      3 C         140.1142  138.8419  159.8367 C.3     1  UNL1        0.0468
      4 C         141.2443  138.5507  160.7791 C.3     1  UNL1        0.1367
      5 C         142.3790  137.9812  159.9803 C.2     1  UNL1        0.2404
      6 O         143.7090  137.5484  160.5224 O.2     1  UNL1       -0.2734
      7 N         141.2404  138.7875  162.2602 N.3     1  UNL1       -0.2665
      8 C         141.1683  137.6250  163.2054 C.3     1  UNL1        0.0728
      9 C         141.1644  137.8617  164.6866 C.3     1  UNL1        0.0217
     10 C         141.2325  139.2610  165.2226 C.3     1  UNL1        0.0251
     11 C         141.3046  140.4236  164.2774 C.3     1  UNL1        0.0217
     12 C         141.3085  140.1868  162.7963 C.3     1  UNL1        0.0728
     13 C         141.2286  139.4978  166.7038 C.ar    1  UNL1       -0.0222
     14 C         142.4980  139.3535  167.4898 C.ar    1  UNL1       -0.0012
     15 C         142.4940  139.5903  168.9710 C.ar    1  UNL1        0.0363
     16 C         141.2206  139.9714  169.6661 C.ar    1  UNL1        0.1337
     17 O         141.2167  140.2082  171.1474 O.3     1  UNL1       -0.5055
     18 C         139.9512  140.1157  168.8802 C.ar    1  UNL1        0.0363
     19 C         139.9551  139.8789  167.3991 C.ar    1  UNL1       -0.0012
     20 H         142.0096  140.1180  171.6383 H       1  UNL1        0.2922
     21 C         142.7761  137.4162  157.3980 C.3     1  UNL1        0.1202
     22 C         141.8024  131.9245  155.1860 C.3     1  UNL1        0.0310
     23 C         142.0459  133.2974  155.7390 C.ar    1  UNL1       -0.0219
     24 C         143.0327  133.4937  156.8514 C.ar    1  UNL1       -0.0045
     25 C         143.2761  134.8667  157.4044 C.ar    1  UNL1       -0.0029
     26 C         142.5327  136.0432  156.8450 C.ar    1  UNL1       -0.0024
     27 C         141.5459  135.8469  155.7325 C.ar    1  UNL1       -0.0029
     28 C         141.3025  134.4740  155.1795 C.ar    1  UNL1       -0.0045
@<TRIPOS>BOND
     1    22    23    1
     2    23    24   ar
     3    24    25   ar
     4    25    26   ar
     5    26    21    1
     6    21     1    1
     7     1     2    1
     8     2     3    1
     9     3     4    1
    10     4     7    1
    11     7     8    1
    12     8     9    1
    13     9    10    1
    14    10    13    1
    15    13    14   ar
    16    14    15   ar
    17    15    16   ar
    18    16    17    1
    19    16    18   ar
    20    18    19   ar
    21    10    11    1
    22    11    12    1
    23     4     5    1
    24     5     6    2
    25    26    27   ar
    26    27    28   ar
    27    28    23   ar
    28     5     1   am
    29    12     7    1
    30    19    13   ar
    31    17    20    1
@<TRIPOS>MOLECULE
*****
 28 31 0 0 0
SMALL
GASTEIGER

@<TRIPOS>ATOM
      1 N         143.9799  141.6124  159.2003 N.am    1  UNL1       -0.2743
      2 C         143.7048  140.1387  159.1486 C.3     1  UNL1        0.0957
      3 C         143.4466  139.6659  160.5487 C.3     1  UNL1        0.0468
      4 C         143.5623  140.8475  161.4656 C.3     1  UNL1        0.1367
      5 C         143.8919  142.0504  160.6323 C.2     1  UNL1        0.2404
      6 O         144.0973  143.4463  161.1415 O.2     1  UNL1       -0.2734
      7 N         143.3803  140.8293  162.9543 N.3     1  UNL1       -0.2665
      8 C         142.4784  141.8313  163.6120 C.3     1  UNL1        0.0728
      9 C         142.2964  141.8131  165.1008 C.3     1  UNL1        0.0217
     10 C         143.0163  140.7928  165.9320 C.3     1  UNL1        0.0251
     11 C         143.9182  139.7907  165.2743 C.3     1  UNL1        0.0217
     12 C         144.1001  139.8090  163.7855 C.3     1  UNL1        0.0728
     13 C         142.8343  140.7745  167.4208 C.ar    1  UNL1       -0.0222
     14 C         143.0197  142.0337  168.2145 C.ar    1  UNL1       -0.0012
     15 C         142.8377  142.0155  169.7033 C.ar    1  UNL1        0.0363
     16 C         142.4703  140.7380  170.3983 C.ar    1  UNL1        0.1337
     17 O         142.2883  140.7198  171.8871 O.3     1  UNL1       -0.5055
     18 C         142.2848  139.4788  169.6046 C.ar    1  UNL1        0.0363
     19 C         142.4668  139.4970  168.1159 C.ar    1  UNL1       -0.0012
     20 H         142.4041  141.5063  172.3830 H       1  UNL1        0.2922
     21 C         144.2889  142.4933  158.0263 C.3     1  UNL1        0.1202
     22 C         149.3712  141.7018  154.9370 C.3     1  UNL1        0.0310
     23 C         148.1007  141.8997  155.7093 C.ar    1  UNL1       -0.0219
     24 C         148.1043  142.7281  156.9598 C.ar    1  UNL1       -0.0045
     25 C         146.8338  142.9260  157.7321 C.ar    1  UNL1       -0.0029
     26 C         145.5595  142.2954  157.2539 C.ar    1  UNL1       -0.0024
     27 C         145.5558  141.4670  156.0035 C.ar    1  UNL1       -0.0029
     28 C         146.8264  141.2692  155.2312 C.ar    1  UNL1       -0.0045
@<TRIPOS>BOND
     1    22    23    1
     2    23    24   ar
     3    24    25   ar
     4    25    26   ar
     5    26    21    1
     6    21     1    1
     7     1     2    1
     8     2     3    1
     9     3     4    1
    10     4     7    1
    11     7     8    1
    12     8     9    1
    13     9    10    1
    14    10    13    1
    15    13    14   ar
    16    14    15   ar
    17    15    16   ar
    18    16    17    1
    19    16    18   ar
    20    18    19   ar
    21    10    11    1
    22    11    12    1
    23     4     5    1
    24     5     6    2
    25    26    27   ar
    26    27    28   ar
    27    28    23   ar
    28     5     1   am
    29    12     7    1
    30    19    13   ar
    31    17    20    1
@<TRIPOS>MOLECULE
*****
 28 31 0 0 0
SMALL
GASTEIGER

@<TRIPOS>ATOM
      1 N         140.6793  139.0655  159.5212 N.am    1  UNL1       -0.2743
      2 C         139.3271  138.4481  159.7227 C.3     1  UNL1        0.0957
      3 C         138.9289  138.6608  161.1532 C.3     1  UNL1        0.0468
      4 C         140.0350  139.4096  161.8358 C.3     1  UNL1        0.1367
      5 C         141.1167  139.6597  160.8272 C.2     1  UNL1        0.2404
      6 O         142.4091  140.3780  161.0801 O.2     1  UNL1       -0.2734
      7 N         140.0557  139.8339  163.2743 N.3     1  UNL1       -0.2665
      8 C         141.0183  139.1949  164.2309 C.3     1  UNL1        0.0728
      9 C         141.0390  139.6191  165.6695 C.3     1  UNL1        0.0217
     10 C         140.0970  140.6824  166.1516 C.3     1  UNL1        0.0251
     11 C         139.1344  141.3214  165.1949 C.3     1  UNL1        0.0217
     12 C         139.1138  140.8971  163.7563 C.3     1  UNL1        0.0728
     13 C         140.1177  141.1066  167.5902 C.ar    1  UNL1       -0.0222
     14 C         140.6423  142.4609  167.9653 C.ar    1  UNL1       -0.0012
     15 C         140.6630  142.8851  169.4039 C.ar    1  UNL1        0.0363
     16 C         140.1590  141.9550  170.4674 C.ar    1  UNL1        0.1337
     17 O         140.1797  142.3792  171.9060 O.3     1  UNL1       -0.5055
     18 C         139.6345  140.6007  170.0923 C.ar    1  UNL1        0.0363
     19 C         139.6138  140.1765  168.6537 C.ar    1  UNL1       -0.0012
     20 H         140.5074  143.2252  172.1403 H       1  UNL1        0.2922
     21 C         141.4573  139.0852  158.2389 C.3     1  UNL1        0.1202
     22 C         141.8369  134.1255  154.8837 C.3     1  UNL1        0.0310
     23 C         141.7420  135.3654  155.7225 C.ar    1  UNL1       -0.0219
     24 C         142.7823  135.6465  156.7658 C.ar    1  UNL1       -0.0045
     25 C         142.6874  136.8864  157.6046 C.ar    1  UNL1       -0.0029
     26 C         141.5522  137.8453  157.4001 C.ar    1  UNL1       -0.0024
     27 C         140.5119  137.5641  156.3568 C.ar    1  UNL1       -0.0029
     28 C         140.6067  136.3242  155.5179 C.ar    1  UNL1       -0.0045
@<TRIPOS>BOND
     1    22    23    1
     2    23    24   ar
     3    24    25   ar
     4    25    26   ar
     5    26    21    1
     6    21     1    1
     7     1     2    1
     8     2     3    1
     9     3     4    1
    10     4     7    1
    11     7     8    1
    12     8     9    1
    13     9    10    1
    14    10    13    1
    15    13    14   ar
    16    14    15   ar
    17    15    16   ar
    18    16    17    1
    19    16    18   ar
    20    18    19   ar
    21    10    11    1
    22    11    12    1
    23     4     5    1
    24     5     6    2
    25    26    27   ar
    26    27    28   ar
    27    28    23   ar
    28     5     1   am
    29    12     7    1
    30    19    13   ar
    31    17    20    1
@<TRIPOS>MOLECULE
*****
 28 31 0 0 0
SMALL
GASTEIGER

@<TRIPOS>ATOM
      1 N         141.9701  138.8899  159.1001 N.am    1  UNL1       -0.2743
      2 C         143.4013  139.2895  159.3053 C.3     1  UNL1        0.0957
      3 C         143.6085  139.5350  160.7706 C.3     1  UNL1        0.0468
      4 C         142.3053  139.2871  161.4709 C.3     1  UNL1        0.1367
      5 C         141.2928  138.8884  160.4385 C.2     1  UNL1        0.2404
      6 O         139.8553  138.5481  160.6987 O.2     1  UNL1       -0.2734
      7 N         142.0582  139.4153  162.9447 N.3     1  UNL1       -0.2665
      8 C         142.8816  138.6215  163.9152 C.3     1  UNL1        0.0728
      9 C         142.6344  138.7498  165.3891 C.3     1  UNL1        0.0217
     10 C         141.5638  139.6719  165.8926 C.3     1  UNL1        0.0251
     11 C         140.7403  140.4657  164.9222 C.3     1  UNL1        0.0217
     12 C         140.9875  140.3374  163.4482 C.3     1  UNL1        0.0728
     13 C         141.3166  139.8001  167.3666 C.ar    1  UNL1       -0.0222
     14 C         142.4042  139.4595  168.3418 C.ar    1  UNL1       -0.0012
     15 C         142.1570  139.5877  169.8158 C.ar    1  UNL1        0.0363
     16 C         140.8222  140.0567  170.3143 C.ar    1  UNL1        0.1337
     17 O         140.5750  140.1849  171.7883 O.3     1  UNL1       -0.5055
     18 C         139.7347  140.3973  169.3390 C.ar    1  UNL1        0.0363
     19 C         139.9818  140.2691  167.8652 C.ar    1  UNL1       -0.0012
     20 H         141.2544  139.9721  172.3975 H       1  UNL1        0.2922
     21 C         141.3288  138.5513  157.7870 C.3     1  UNL1        0.1202
     22 C         142.6829  133.3986  155.0273 C.3     1  UNL1        0.0310
     23 C         142.3444  134.6868  155.7173 C.ar    1  UNL1       -0.0219
     24 C         143.2365  135.2137  156.8018 C.ar    1  UNL1       -0.0045
     25 C         142.8980  136.5019  157.4918 C.ar    1  UNL1       -0.0029
     26 C         141.6673  137.2631  157.0971 C.ar    1  UNL1       -0.0024
     27 C         140.7751  136.7362  156.0125 C.ar    1  UNL1       -0.0029
     28 C         141.1137  135.4480  155.3226 C.ar    1  UNL1       -0.0045
@<TRIPOS>BOND
     1    22    23    1
     2    23    24   ar
     3    24    25   ar
     4    25    26   ar
     5    26    21    1
     6    21     1    1
     7     1     2    1
     8     2     3    1
     9     3     4    1
    10     4     7    1
    11     7     8    1
    12     8     9    1
    13     9    10    1
    14    10    13    1
    15    13    14   ar
    16    14    15   ar
    17    15    16   ar
    18    16    17    1
    19    16    18   ar
    20    18    19   ar
    21    10    11    1
    22    11    12    1
    23     4     5    1
    24     5     6    2
    25    26    27   ar
    26    27    28   ar
    27    28    23   ar
    28     5     1   am
    29    12     7    1
    30    19    13   ar
    31    17    20    1
@<TRIPOS>MOLECULE
*****
 28 31 0 0 0
SMALL
GASTEIGER

@<TRIPOS>ATOM
      1 N         142.5762  139.3553  159.5015 N.am    1  UNL1       -0.2743
      2 C         142.9526  137.9292  159.7748 C.3     1  UNL1        0.0957
      3 C         142.8320  137.6927  161.2512 C.3     1  UNL1        0.0468
      4 C         142.3810  138.9727  161.8903 C.3     1  UNL1        0.1367
      5 C         142.2229  140.0002  160.8090 C.2     1  UNL1        0.2404
      6 O         141.7879  141.4227  161.0013 O.2     1  UNL1       -0.2734
      7 N         142.1319  139.1874  163.3537 N.3     1  UNL1       -0.2665
      8 C         140.7530  139.5247  163.8382 C.3     1  UNL1        0.0728
      9 C         140.5039  139.7395  165.3018 C.3     1  UNL1        0.0217
     10 C         141.6337  139.6168  166.2808 C.3     1  UNL1        0.0251
     11 C         143.0127  139.2794  165.7963 C.3     1  UNL1        0.0217
     12 C         143.2617  139.0647  164.3328 C.3     1  UNL1        0.0728
     13 C         141.3846  139.8315  167.7443 C.ar    1  UNL1       -0.0222
     14 C         142.5184  139.7289  168.7210 C.ar    1  UNL1       -0.0012
     15 C         142.2693  139.9437  170.1846 C.ar    1  UNL1        0.0363
     16 C         140.8863  140.2609  170.6712 C.ar    1  UNL1        0.1337
     17 O         140.6372  140.4757  172.1347 O.3     1  UNL1       -0.5055
     18 C         139.7525  140.3635  169.6945 C.ar    1  UNL1        0.0363
     19 C         140.0016  140.1488  168.2311 C.ar    1  UNL1       -0.0012
     20 H         141.3454  140.4116  172.7449 H       1  UNL1        0.2922
     21 C         142.5565  140.0198  158.1569 C.3     1  UNL1        0.1202
     22 C         147.5549  142.5174  155.9711 C.3     1  UNL1        0.0310
     23 C         146.3053  141.8930  156.5176 C.ar    1  UNL1       -0.0219
     24 C         145.6516  142.4683  157.7389 C.ar    1  UNL1       -0.0045
     25 C         144.4020  141.8439  158.2854 C.ar    1  UNL1       -0.0029
     26 C         143.8061  140.6442  157.6105 C.ar    1  UNL1       -0.0024
     27 C         144.4597  140.0689  156.3891 C.ar    1  UNL1       -0.0029
     28 C         145.7093  140.6933  155.8427 C.ar    1  UNL1       -0.0045
@<TRIPOS>BOND
     1    22    23    1
     2    23    24   ar
     3    24    25   ar
     4    25    26   ar
     5    26    21    1
     6    21     1    1
     7     1     2    1
     8     2     3    1
     9     3     4    1
    10     4     7    1
    11     7     8    1
    12     8     9    1
    13     9    10    1
    14    10    13    1
    15    13    14   ar
    16    14    15   ar
    17    15    16   ar
    18    16    17    1
    19    16    18   ar
    20    18    19   ar
    21    10    11    1
    22    11    12    1
    23     4     5    1
    24     5     6    2
    25    26    27   ar
    26    27    28   ar
    27    28    23   ar
    28     5     1   am
    29    12     7    1
    30    19    13   ar
    31    17    20    1
@<TRIPOS>MOLECULE
*****
 28 31 0 0 0
SMALL
GASTEIGER

@<TRIPOS>ATOM
      1 N         143.0327  142.4962  159.3885 N.am    1  UNL1       -0.2743
      2 C         142.4350  141.1285  159.2389 C.3     1  UNL1        0.0957
      3 C         142.2280  140.5604  160.6118 C.3     1  UNL1        0.0468
      4 C         142.6977  141.5770  161.6097 C.3     1  UNL1        0.1367
      5 C         143.1951  142.7733  160.8538 C.2     1  UNL1        0.2404
      6 O         143.7562  144.0268  161.4570 O.2     1  UNL1       -0.2734
      7 N         142.6743  141.4242  163.1017 N.3     1  UNL1       -0.2665
      8 C         143.4584  140.3252  163.7554 C.3     1  UNL1        0.0728
      9 C         143.4349  140.1724  165.2474 C.3     1  UNL1        0.0217
     10 C         142.6273  141.1184  166.0857 C.3     1  UNL1        0.0251
     11 C         141.8430  142.2174  165.4320 C.3     1  UNL1        0.0217
     12 C         141.8666  142.3702  163.9399 C.3     1  UNL1        0.0728
     13 C         142.6038  140.9655  167.5777 C.ar    1  UNL1       -0.0222
     14 C         142.2721  139.6371  168.1904 C.ar    1  UNL1       -0.0012
     15 C         142.2486  139.4842  169.6824 C.ar    1  UNL1        0.0363
     16 C         142.5569  140.6598  170.5617 C.ar    1  UNL1        0.1337
     17 O         142.5334  140.5069  172.0537 O.3     1  UNL1       -0.5055
     18 C         142.8885  141.9882  169.9490 C.ar    1  UNL1        0.0363
     19 C         142.9120  142.1411  168.4571 C.ar    1  UNL1       -0.0012
     20 H         142.3262  139.6771  172.4364 H       1  UNL1        0.2922
     21 C         143.4030  143.4237  158.2694 C.3     1  UNL1        0.1202
     22 C         139.2667  147.0672  155.8996 C.3     1  UNL1        0.0310
     23 C         140.3008  146.1564  156.4920 C.ar    1  UNL1       -0.0219
     24 C         140.3352  145.9240  157.9735 C.ar    1  UNL1       -0.0045
     25 C         141.3693  145.0131  158.5659 C.ar    1  UNL1       -0.0029
     26 C         142.3689  144.3346  157.6769 C.ar    1  UNL1       -0.0024
     27 C         142.3345  144.5670  156.1955 C.ar    1  UNL1       -0.0029
     28 C         141.3004  145.4779  155.6030 C.ar    1  UNL1       -0.0045
@<TRIPOS>BOND
     1    22    23    1
     2    23    24   ar
     3    24    25   ar
     4    25    26   ar
     5    26    21    1
     6    21     1    1
     7     1     2    1
     8     2     3    1
     9     3     4    1
    10     4     7    1
    11     7     8    1
    12     8     9    1
    13     9    10    1
    14    10    13    1
    15    13    14   ar
    16    14    15   ar
    17    15    16   ar
    18    16    17    1
    19    16    18   ar
    20    18    19   ar
    21    10    11    1
    22    11    12    1
    23     4     5    1
    24     5     6    2
    25    26    27   ar
    26    27    28   ar
    27    28    23   ar
    28     5     1   am
    29    12     7    1
    30    19    13   ar
    31    17    20    1
@<TRIPOS>MOLECULE
*****
 28 31 0 0 0
SMALL
GASTEIGER

@<TRIPOS>ATOM
      1 N         141.3337  143.3498  159.4635 N.am    1  UNL1       -0.2743
      2 C         140.0863  142.5218  159.3711 C.3     1  UNL1        0.0957
      3 C         139.6682  142.1564  160.7647 C.3     1  UNL1        0.0468
      4 C         140.6572  142.7587  161.7182 C.3     1  UNL1        0.1367
      5 C         141.6865  143.4963  160.9141 C.2     1  UNL1        0.2404
      6 O         142.8621  144.2482  161.4639 O.2     1  UNL1       -0.2734
      7 N         140.6229  142.6437  163.2133 N.3     1  UNL1       -0.2665
      8 C         139.9130  143.6829  164.0294 C.3     1  UNL1        0.0728
      9 C         139.8787  143.5678  165.5246 C.3     1  UNL1        0.0217
     10 C         140.5543  142.4135  166.2037 C.3     1  UNL1        0.0251
     11 C         141.2643  141.3742  165.3876 C.3     1  UNL1        0.0217
     12 C         141.2985  141.4894  163.8924 C.3     1  UNL1        0.0728
     13 C         140.5200  142.2985  167.6989 C.ar    1  UNL1       -0.0222
     14 C         140.3196  143.5235  168.5410 C.ar    1  UNL1       -0.0012
     15 C         140.2853  143.4084  170.0362 C.ar    1  UNL1        0.0363
     16 C         140.4514  142.0682  170.6892 C.ar    1  UNL1        0.1337
     17 O         140.4171  141.9532  172.1844 O.3     1  UNL1       -0.5055
     18 C         140.6518  140.8432  169.8471 C.ar    1  UNL1        0.0363
     19 C         140.6861  140.9583  168.3520 C.ar    1  UNL1       -0.0012
     20 H         140.2919  142.7184  172.7105 H       1  UNL1        0.2922
     21 C         142.0946  143.9296  158.3082 C.3     1  UNL1        0.1202
     22 C         139.4263  147.8335  154.6149 C.3     1  UNL1        0.0310
     23 C         140.0934  146.8575  155.5382 C.ar    1  UNL1       -0.0219
     24 C         141.1783  145.9589  155.0230 C.ar    1  UNL1       -0.0045
     25 C         141.8454  144.9830  155.9463 C.ar    1  UNL1       -0.0029
     26 C         141.4275  144.9056  157.3848 C.ar    1  UNL1       -0.0024
     27 C         140.3426  145.8042  157.9001 C.ar    1  UNL1       -0.0029
     28 C         139.6756  146.7802  156.9767 C.ar    1  UNL1       -0.0045
@<TRIPOS>BOND
     1    22    23    1
     2    23    24   ar
     3    24    25   ar
     4    25    26   ar
     5    26    21    1
     6    21     1    1
     7     1     2    1
     8     2     3    1
     9     3     4    1
    10     4     7    1
    11     7     8    1
    12     8     9    1
    13     9    10    1
    14    10    13    1
    15    13    14   ar
    16    14    15   ar
    17    15    16   ar
    18    16    17    1
    19    16    18   ar
    20    18    19   ar
    21    10    11    1
    22    11    12    1
    23     4     5    1
    24     5     6    2
    25    26    27   ar
    26    27    28   ar
    27    28    23   ar
    28     5     1   am
    29    12     7    1
    30    19    13   ar
    31    17    20    1
@<TRIPOS>MOLECULE
*****
 28 31 0 0 0
SMALL
GASTEIGER

@<TRIPOS>ATOM
      1 N         141.4088  144.8720  159.0765 N.am    1  UNL1       -0.2743
      2 C         142.5587  143.9115  159.0039 C.3     1  UNL1        0.0957
      3 C         142.6177  143.1602  160.3009 C.3     1  UNL1        0.0468
      4 C         141.5043  143.6564  161.1751 C.3     1  UNL1        0.1367
      5 C         140.7572  144.7143  160.4184 C.2     1  UNL1        0.2404
      6 O         139.5673  145.4802  160.9160 O.2     1  UNL1       -0.2734
      7 N         141.1927  143.1787  162.5623 N.3     1  UNL1       -0.2665
      8 C         141.0438  141.7111  162.8344 C.3     1  UNL1        0.0728
      9 C         140.7322  141.2333  164.2217 C.3     1  UNL1        0.0217
     10 C         140.5696  142.2231  165.3370 C.3     1  UNL1        0.0251
     11 C         140.7185  143.6907  165.0650 C.3     1  UNL1        0.0217
     12 C         141.0301  144.1684  163.6776 C.3     1  UNL1        0.0728
     13 C         140.2580  141.7453  166.7243 C.ar    1  UNL1       -0.0222
     14 C         139.6358  140.3961  166.9309 C.ar    1  UNL1       -0.0012
     15 C         139.3242  139.9183  168.3182 C.ar    1  UNL1        0.0363
     16 C         139.6349  140.7898  169.4989 C.ar    1  UNL1        0.1337
     17 O         139.3233  140.3120  170.8863 O.3     1  UNL1       -0.5055
     18 C         140.2571  142.1389  169.2924 C.ar    1  UNL1        0.0363
     19 C         140.5687  142.6167  167.9052 C.ar    1  UNL1       -0.0012
     20 H         138.9347  139.4692  171.0153 H       1  UNL1        0.2922
     21 C         140.9850  145.8231  157.9968 C.3     1  UNL1        0.1202
     22 C         136.8040  144.1774  154.0204 C.3     1  UNL1        0.0310
     23 C         137.8493  144.5888  155.0145 C.ar    1  UNL1       -0.0219
     24 C         138.4274  143.5758  155.9576 C.ar    1  UNL1       -0.0045
     25 C         139.4726  143.9872  156.9517 C.ar    1  UNL1       -0.0029
     26 C         139.9397  145.4117  157.0027 C.ar    1  UNL1       -0.0024
     27 C         139.3616  146.4247  156.0596 C.ar    1  UNL1       -0.0029
     28 C         138.3164  146.0133  155.0655 C.ar    1  UNL1       -0.0045
@<TRIPOS>BOND
     1    22    23    1
     2    23    24   ar
     3    24    25   ar
     4    25    26   ar
     5    26    21    1
     6    21     1    1
     7     1     2    1
     8     2     3    1
     9     3     4    1
    10     4     7    1
    11     7     8    1
    12     8     9    1
    13     9    10    1
    14    10    13    1
    15    13    14   ar
    16    14    15   ar
    17    15    16   ar
    18    16    17    1
    19    16    18   ar
    20    18    19   ar
    21    10    11    1
    22    11    12    1
    23     4     5    1
    24     5     6    2
    25    26    27   ar
    26    27    28   ar
    27    28    23   ar
    28     5     1   am
    29    12     7    1
    30    19    13   ar
    31    17    20    1
