@<TRIPOS>MOLECULE
*****
 32 35 0 0 0
SMALL
GASTEIGER

@<TRIPOS>ATOM
      1 N         143.2627  138.5824  158.6275 N.am    1  UNL1       -0.2806
      2 C         143.0414  138.4275  160.1029 C.2     1  UNL1        0.2495
      3 O         142.1953  137.3022  160.6204 O.2     1  UNL1       -0.2698
      4 H         143.8181  139.3210  158.2879 H       1  UNL1        0.1552
      5 C         140.9220  139.4258  156.9512 C.3     1  UNL1        0.0324
      6 C         141.4676  138.0336  156.8313 C.ar    1  UNL1       -0.0061
      7 C         140.8428  137.0632  155.8732 C.ar    1  UNL1        0.0267
      8 C         141.3883  135.6711  155.7533 C.ar    1  UNL1        0.1427
      9 F         140.7635  134.7007  154.7952 F       1  UNL1       -0.2041
     10 C         142.5587  135.2494  156.5914 C.ar    1  UNL1        0.0626
     11 C         143.1834  136.2198  157.5495 C.ar    1  UNL1        0.0196
     12 C         142.6379  137.6119  157.6694 C.ar    1  UNL1        0.0467
     13 C         143.1042  133.8573  156.4715 C.ar    1  UNL1        0.1428
     14 N         142.3111  132.5879  156.5705 N.ar    1  UNL1       -0.2253
     15 C         143.2554  131.4362  156.3917 C.ar    1  UNL1        0.1189
     16 C         144.6321  131.9938  156.1822 C.ar    1  UNL1        0.0945
     17 N         144.5386  133.4900  156.2316 N.ar    1  UNL1       -0.3361
     18 H         145.2873  134.1204  156.1251 H       1  UNL1        0.1674
     19 C         143.6663  139.3979  161.0610 C.ar    1  UNL1        0.0539
     20 C         143.9682  140.7992  160.6190 C.ar    1  UNL1        0.0076
     21 C         144.5930  141.7696  161.5771 C.ar    1  UNL1        0.0371
     22 C         144.9159  141.3388  162.9771 C.ar    1  UNL1        0.1391
     23 C         144.6139  139.9375  163.4191 C.ar    1  UNL1        0.0371
     24 C         143.9891  138.9671  162.4611 C.ar    1  UNL1        0.0076
     25 O         145.5407  142.3092  163.9352 O.3     1  UNL1       -0.4690
     26 C         144.7115  142.9329  165.0184 C.3     1  UNL1        0.2508
     27 C         143.3686  143.5165  164.6930 C.ar    1  UNL1        0.1026
     28 C         143.2755  144.8052  163.9310 C.ar    1  UNL1        0.0185
     29 C         141.9325  145.3887  163.6056 C.ar    1  UNL1        0.0029
     30 C         140.6826  144.6835  164.0421 C.ar    1  UNL1        0.0207
     31 C         140.7757  143.3948  164.8041 C.ar    1  UNL1        0.0986
     32 N         142.1187  142.8113  165.1295 N.ar    1  UNL1       -0.2445
@<TRIPOS>BOND
     1     5     6    1
     2     6     7   ar
     3     7     8   ar
     4     8     9    1
     5     8    10   ar
     6    10    13    1
     7    13    14   ar
     8    14    15   ar
     9    15    16   ar
    10    16    17   ar
    11    10    11   ar
    12    11    12   ar
    13    12     1    1
    14     1     2   am
    15     2     3    2
    16     2    19    1
    17    19    20   ar
    18    20    21   ar
    19    21    22   ar
    20    22    25    1
    21    25    26    1
    22    26    27    1
    23    27    28   ar
    24    28    29   ar
    25    29    30   ar
    26    30    31   ar
    27    31    32   ar
    28    22    23   ar
    29    23    24   ar
    30    12     6   ar
    31    24    19   ar
    32    17    13   ar
    33    32    27   ar
    34    17    18    1
    35     1     4    1
@<TRIPOS>MOLECULE
*****
 32 35 0 0 0
SMALL
GASTEIGER

@<TRIPOS>ATOM
      1 N         141.2487  138.7701  164.2386 N.am    1  UNL1       -0.2806
      2 C         140.8733  139.4787  162.9710 C.2     1  UNL1        0.2495
      3 O         139.9098  140.6277  163.0111 O.2     1  UNL1       -0.2698
      4 H         141.8811  138.0160  164.2122 H       1  UNL1        0.1552
      5 C         138.5076  137.8487  165.0367 C.3     1  UNL1        0.0324
      6 C         139.2901  138.7497  165.9455 C.ar    1  UNL1       -0.0061
      7 C         138.7021  139.1900  167.2533 C.ar    1  UNL1        0.0267
      8 C         139.4846  140.0910  168.1620 C.ar    1  UNL1        0.1427
      9 F         138.8966  140.5313  169.4699 F       1  UNL1       -0.2041
     10 C         140.8552  140.5517  167.7629 C.ar    1  UNL1        0.0626
     11 C         141.4432  140.1114  166.4552 C.ar    1  UNL1        0.0196
     12 C         140.6606  139.2104  165.5464 C.ar    1  UNL1        0.0467
     13 C         141.6377  141.4527  168.6717 C.ar    1  UNL1        0.1428
     14 N         141.1010  142.6445  169.4076 N.ar    1  UNL1       -0.2253
     15 C         142.2259  143.2485  170.1948 C.ar    1  UNL1        0.1189
     16 C         143.4580  142.4300  169.9454 C.ar    1  UNL1        0.0945
     17 N         143.0944  141.3202  169.0041 N.ar    1  UNL1       -0.3361
     18 H         143.7047  140.6265  168.6641 H       1  UNL1        0.1674
     19 C         141.4613  139.0385  161.6631 C.ar    1  UNL1        0.0539
     20 C         140.9816  139.6514  160.3809 C.ar    1  UNL1        0.0076
     21 C         141.5697  139.2112  159.0731 C.ar    1  UNL1        0.0371
     22 C         142.6374  138.1580  159.0475 C.ar    1  UNL1        0.1391
     23 C         143.1171  137.5450  160.3298 C.ar    1  UNL1        0.0371
     24 C         142.5291  137.9852  161.6376 C.ar    1  UNL1        0.0076
     25 O         143.2254  137.7177  157.7397 O.3     1  UNL1       -0.4690
     26 C         142.3466  137.1018  156.6917 C.3     1  UNL1        0.2508
     27 C         142.3431  135.6148  156.4951 C.ar    1  UNL1        0.1026
     28 C         143.2780  134.7511  157.2887 C.ar    1  UNL1        0.0185
     29 C         143.2745  133.2641  157.0921 C.ar    1  UNL1        0.0029
     30 C         142.3360  132.6407  156.1018 C.ar    1  UNL1        0.0207
     31 C         141.4011  133.5043  155.3081 C.ar    1  UNL1        0.0986
     32 N         141.4046  134.9915  155.5048 N.ar    1  UNL1       -0.2445
@<TRIPOS>BOND
     1     5     6    1
     2     6     7   ar
     3     7     8   ar
     4     8     9    1
     5     8    10   ar
     6    10    13    1
     7    13    14   ar
     8    14    15   ar
     9    15    16   ar
    10    16    17   ar
    11    10    11   ar
    12    11    12   ar
    13    12     1    1
    14     1     2   am
    15     2     3    2
    16     2    19    1
    17    19    20   ar
    18    20    21   ar
    19    21    22   ar
    20    22    25    1
    21    25    26    1
    22    26    27    1
    23    27    28   ar
    24    28    29   ar
    25    29    30   ar
    26    30    31   ar
    27    31    32   ar
    28    22    23   ar
    29    23    24   ar
    30    12     6   ar
    31    24    19   ar
    32    17    13   ar
    33    32    27   ar
    34    17    18    1
    35     1     4    1
@<TRIPOS>MOLECULE
*****
 32 35 0 0 0
SMALL
GASTEIGER

@<TRIPOS>ATOM
      1 N         141.4104  144.2539  158.3960 N.am    1  UNL1       -0.2806
      2 C         141.1290  144.3034  159.8685 C.2     1  UNL1        0.2495
      3 O         139.8077  144.8131  160.3628 O.2     1  UNL1       -0.2698
      4 H         142.2776  143.9193  158.0716 H       1  UNL1        0.1552
      5 C         139.6158  142.2536  157.0624 C.3     1  UNL1        0.0324
      6 C         139.4733  143.7140  156.7510 C.ar    1  UNL1       -0.0061
      7 C         138.4335  144.1742  155.7728 C.ar    1  UNL1        0.0267
      8 C         138.2909  145.6346  155.4614 C.ar    1  UNL1        0.1427
      9 F         137.2510  146.0949  154.4831 F       1  UNL1       -0.2041
     10 C         139.1881  146.6347  156.1282 C.ar    1  UNL1        0.0626
     11 C         140.2280  146.1745  157.1063 C.ar    1  UNL1        0.0196
     12 C         140.3705  144.7141  157.4177 C.ar    1  UNL1        0.0467
     13 C         139.0456  148.0951  155.8168 C.ar    1  UNL1        0.1428
     14 N         139.5060  148.7784  154.5633 N.ar    1  UNL1       -0.2253
     15 C         139.1626  150.2342  154.6760 C.ar    1  UNL1        0.1189
     16 C         138.4898  150.4507  155.9991 C.ar    1  UNL1        0.0945
     17 N         138.4175  149.1286  156.7041 N.ar    1  UNL1       -0.3361
     18 H         138.0265  148.9676  157.5931 H       1  UNL1        0.1674
     19 C         142.1689  143.8431  160.8467 C.ar    1  UNL1        0.0539
     20 C         143.3814  143.1058  160.3609 C.ar    1  UNL1        0.0076
     21 C         144.4213  142.6455  161.3391 C.ar    1  UNL1        0.0371
     22 C         144.2486  142.9227  162.8031 C.ar    1  UNL1        0.1391
     23 C         143.0360  143.6601  163.2889 C.ar    1  UNL1        0.0371
     24 C         141.9962  144.1203  162.3107 C.ar    1  UNL1        0.0076
     25 O         145.2885  142.4624  163.7813 O.3     1  UNL1       -0.4690
     26 C         145.5586  140.9972  163.9548 C.3     1  UNL1        0.2508
     27 C         144.4200  140.0208  163.9656 C.ar    1  UNL1        0.1026
     28 C         143.6522  139.7779  165.2310 C.ar    1  UNL1        0.0185
     29 C         142.5137  138.8014  165.2418 C.ar    1  UNL1        0.0029
     30 C         142.1428  138.0678  163.9870 C.ar    1  UNL1        0.0207
     31 C         142.9107  138.3107  162.7215 C.ar    1  UNL1        0.0986
     32 N         144.0493  139.2872  162.7108 N.ar    1  UNL1       -0.2445
@<TRIPOS>BOND
     1     5     6    1
     2     6     7   ar
     3     7     8   ar
     4     8     9    1
     5     8    10   ar
     6    10    13    1
     7    13    14   ar
     8    14    15   ar
     9    15    16   ar
    10    16    17   ar
    11    10    11   ar
    12    11    12   ar
    13    12     1    1
    14     1     2   am
    15     2     3    2
    16     2    19    1
    17    19    20   ar
    18    20    21   ar
    19    21    22   ar
    20    22    25    1
    21    25    26    1
    22    26    27    1
    23    27    28   ar
    24    28    29   ar
    25    29    30   ar
    26    30    31   ar
    27    31    32   ar
    28    22    23   ar
    29    23    24   ar
    30    12     6   ar
    31    24    19   ar
    32    17    13   ar
    33    32    27   ar
    34    17    18    1
    35     1     4    1
@<TRIPOS>MOLECULE
*****
 32 35 0 0 0
SMALL
GASTEIGER

@<TRIPOS>ATOM
      1 N         141.1660  144.2768  159.2644 N.am    1  UNL1       -0.2806
      2 C         140.5432  144.2224  160.6279 C.2     1  UNL1        0.2495
      3 O         139.0788  144.5006  160.7952 O.2     1  UNL1       -0.2698
      4 H         142.1271  144.0941  159.1545 H       1  UNL1        0.1552
      5 C         139.8084  142.0858  157.7292 C.3     1  UNL1        0.0324
      6 C         139.6455  143.5140  157.3006 C.ar    1  UNL1       -0.0061
      7 C         138.8039  143.8467  156.1044 C.ar    1  UNL1        0.0267
      8 C         138.6409  145.2749  155.6758 C.ar    1  UNL1        0.1427
      9 F         137.7992  145.6076  154.4796 F       1  UNL1       -0.2041
     10 C         139.3196  146.3704  156.4434 C.ar    1  UNL1        0.0626
     11 C         140.1613  146.0377  157.6395 C.ar    1  UNL1        0.0196
     12 C         140.3242  144.6095  158.0681 C.ar    1  UNL1        0.0467
     13 C         139.1567  147.7986  156.0148 C.ar    1  UNL1        0.1428
     14 N         139.7142  148.4132  154.7652 N.ar    1  UNL1       -0.2253
     15 C         139.3097  149.8574  154.7386 C.ar    1  UNL1        0.1189
     16 C         138.5023  150.1354  155.9718 C.ar    1  UNL1        0.0945
     17 N         138.4077  148.8630  156.7605 N.ar    1  UNL1       -0.3361
     18 H         137.9367  148.7468  157.6172 H       1  UNL1        0.1674
     19 C         141.3849  143.8897  161.8241 C.ar    1  UNL1        0.0539
     20 C         141.8054  144.9748  162.7705 C.ar    1  UNL1        0.0076
     21 C         142.6471  144.6422  163.9667 C.ar    1  UNL1        0.0371
     22 C         143.0683  143.2244  164.2165 C.ar    1  UNL1        0.1391
     23 C         142.6478  142.1393  163.2701 C.ar    1  UNL1        0.0371
     24 C         141.8061  142.4719  162.0739 C.ar    1  UNL1        0.0076
     25 O         143.9100  142.8917  165.4127 O.3     1  UNL1       -0.4690
     26 C         143.4237  141.8886  166.4164 C.3     1  UNL1        0.2508
     27 C         142.6462  142.3438  167.6156 C.ar    1  UNL1        0.1026
     28 C         141.1708  142.5901  167.5036 C.ar    1  UNL1        0.0185
     29 C         140.3933  143.0453  168.7028 C.ar    1  UNL1        0.0029
     30 C         141.0912  143.2543  170.0141 C.ar    1  UNL1        0.0207
     31 C         142.5666  143.0081  170.1261 C.ar    1  UNL1        0.0986
     32 N         143.3441  142.5528  168.9267 N.ar    1  UNL1       -0.2445
@<TRIPOS>BOND
     1     5     6    1
     2     6     7   ar
     3     7     8   ar
     4     8     9    1
     5     8    10   ar
     6    10    13    1
     7    13    14   ar
     8    14    15   ar
     9    15    16   ar
    10    16    17   ar
    11    10    11   ar
    12    11    12   ar
    13    12     1    1
    14     1     2   am
    15     2     3    2
    16     2    19    1
    17    19    20   ar
    18    20    21   ar
    19    21    22   ar
    20    22    25    1
    21    25    26    1
    22    26    27    1
    23    27    28   ar
    24    28    29   ar
    25    29    30   ar
    26    30    31   ar
    27    31    32   ar
    28    22    23   ar
    29    23    24   ar
    30    12     6   ar
    31    24    19   ar
    32    17    13   ar
    33    32    27   ar
    34    17    18    1
    35     1     4    1
@<TRIPOS>MOLECULE
*****
 32 35 0 0 0
SMALL
GASTEIGER

@<TRIPOS>ATOM
      1 N         141.5705  139.1657  159.4037 N.am    1  UNL1       -0.2806
      2 C         141.9622  138.1249  160.4103 C.2     1  UNL1        0.2495
      3 O         143.1338  137.2270  160.1436 O.2     1  UNL1       -0.2698
      4 H         140.8016  139.7550  159.5788 H       1  UNL1        0.1552
      5 C         140.7043  137.6891  156.9401 C.3     1  UNL1        0.0324
      6 C         141.9174  138.5704  156.8986 C.ar    1  UNL1       -0.0061
      7 C         142.6974  138.7135  155.6254 C.ar    1  UNL1        0.0267
      8 C         143.9104  139.5948  155.5839 C.ar    1  UNL1        0.1427
      9 F         144.6904  139.7378  154.3106 F       1  UNL1       -0.2041
     10 C         144.3435  140.3331  156.8157 C.ar    1  UNL1        0.0626
     11 C         143.5636  140.1901  158.0889 C.ar    1  UNL1        0.0196
     12 C         142.3505  139.3087  158.1304 C.ar    1  UNL1        0.0467
     13 C         145.5566  141.2145  156.7742 C.ar    1  UNL1        0.1428
     14 N         145.8002  142.4201  157.6327 N.ar    1  UNL1       -0.2253
     15 C         147.1332  142.9957  157.2561 C.ar    1  UNL1        0.1189
     16 C         147.7134  142.1457  156.1648 C.ar    1  UNL1        0.0945
     17 N         146.7390  141.0449  155.8670 N.ar    1  UNL1       -0.3361
     18 H         146.8552  140.3356  155.1943 H       1  UNL1        0.1674
     19 C         141.1822  137.9818  161.6836 C.ar    1  UNL1        0.0539
     20 C         139.6869  138.0986  161.6642 C.ar    1  UNL1        0.0076
     21 C         138.9069  137.9556  162.9375 C.ar    1  UNL1        0.0371
     22 C         139.6222  137.6959  164.2300 C.ar    1  UNL1        0.1391
     23 C         141.1176  137.5791  164.2493 C.ar    1  UNL1        0.0371
     24 C         141.8975  137.7221  162.9761 C.ar    1  UNL1        0.0076
     25 O         138.8423  137.5528  165.5033 O.3     1  UNL1       -0.4690
     26 C         138.1367  138.7404  166.0881 C.3     1  UNL1        0.2508
     27 C         138.8865  139.7042  166.9593 C.ar    1  UNL1        0.1026
     28 C         139.6516  140.8361  166.3401 C.ar    1  UNL1        0.0185
     29 C         140.4013  141.7998  167.2113 C.ar    1  UNL1        0.0029
     30 C         140.3859  141.6317  168.7018 C.ar    1  UNL1        0.0207
     31 C         139.6208  140.4998  169.3210 C.ar    1  UNL1        0.0986
     32 N         138.8711  139.5360  168.4497 N.ar    1  UNL1       -0.2445
@<TRIPOS>BOND
     1     5     6    1
     2     6     7   ar
     3     7     8   ar
     4     8     9    1
     5     8    10   ar
     6    10    13    1
     7    13    14   ar
     8    14    15   ar
     9    15    16   ar
    10    16    17   ar
    11    10    11   ar
    12    11    12   ar
    13    12     1    1
    14     1     2   am
    15     2     3    2
    16     2    19    1
    17    19    20   ar
    18    20    21   ar
    19    21    22   ar
    20    22    25    1
    21    25    26    1
    22    26    27    1
    23    27    28   ar
    24    28    29   ar
    25    29    30   ar
    26    30    31   ar
    27    31    32   ar
    28    22    23   ar
    29    23    24   ar
    30    12     6   ar
    31    24    19   ar
    32    17    13   ar
    33    32    27   ar
    34    17    18    1
    35     1     4    1
@<TRIPOS>MOLECULE
*****
 32 35 0 0 0
SMALL
GASTEIGER

@<TRIPOS>ATOM
      1 N         142.1467  138.4721  157.3888 N.am    1  UNL1       -0.2806
      2 C         143.2122  139.5257  157.4556 C.2     1  UNL1        0.2495
      3 O         144.4507  139.3940  156.6196 O.2     1  UNL1       -0.2698
      4 H         141.3338  138.5586  157.9375 H       1  UNL1        0.1552
      5 C         141.5440  138.7161  154.4601 C.3     1  UNL1        0.0324
      6 C         142.0183  137.4087  155.0218 C.ar    1  UNL1       -0.0061
      7 C         142.1913  136.2232  154.1192 C.ar    1  UNL1        0.0267
      8 C         142.6656  134.9157  154.6809 C.ar    1  UNL1        0.1427
      9 F         142.8386  133.7303  153.7782 F       1  UNL1       -0.2041
     10 C         142.9670  134.7937  156.1452 C.ar    1  UNL1        0.0626
     11 C         142.7940  135.9791  157.0478 C.ar    1  UNL1        0.0196
     12 C         142.3197  137.2866  156.4861 C.ar    1  UNL1        0.0467
     13 C         143.4413  133.4862  156.7069 C.ar    1  UNL1        0.1428
     14 N         142.6587  132.2072  156.7450 N.ar    1  UNL1       -0.2253
     15 C         143.5152  131.1586  157.3908 C.ar    1  UNL1        0.1189
     16 C         144.8273  131.7897  157.7517 C.ar    1  UNL1        0.0945
     17 N         144.7816  133.2282  157.3290 N.ar    1  UNL1       -0.3361
     18 H         145.5044  133.8873  157.4404 H       1  UNL1        0.1674
     19 C         143.0392  140.7112  158.3583 C.ar    1  UNL1        0.0539
     20 C         142.5656  140.5174  159.7683 C.ar    1  UNL1        0.0076
     21 C         142.3926  141.7028  160.6710 C.ar    1  UNL1        0.0371
     22 C         142.6932  143.0820  160.1637 C.ar    1  UNL1        0.1391
     23 C         143.1668  143.2758  158.7536 C.ar    1  UNL1        0.0371
     24 C         143.3398  142.0904  157.8509 C.ar    1  UNL1        0.0076
     25 O         142.5203  144.2675  161.0664 O.3     1  UNL1       -0.4690
     26 C         141.2193  145.0139  161.0831 C.3     1  UNL1        0.2508
     27 C         140.2066  144.7320  162.1531 C.ar    1  UNL1        0.1026
     28 C         140.5577  144.9520  163.5948 C.ar    1  UNL1        0.0185
     29 C         139.5450  144.6701  164.6648 C.ar    1  UNL1        0.0029
     30 C         138.1812  144.1682  164.2932 C.ar    1  UNL1        0.0207
     31 C         137.8300  143.9482  162.8516 C.ar    1  UNL1        0.0986
     32 N         138.8428  144.2301  161.7815 N.ar    1  UNL1       -0.2445
@<TRIPOS>BOND
     1     5     6    1
     2     6     7   ar
     3     7     8   ar
     4     8     9    1
     5     8    10   ar
     6    10    13    1
     7    13    14   ar
     8    14    15   ar
     9    15    16   ar
    10    16    17   ar
    11    10    11   ar
    12    11    12   ar
    13    12     1    1
    14     1     2   am
    15     2     3    2
    16     2    19    1
    17    19    20   ar
    18    20    21   ar
    19    21    22   ar
    20    22    25    1
    21    25    26    1
    22    26    27    1
    23    27    28   ar
    24    28    29   ar
    25    29    30   ar
    26    30    31   ar
    27    31    32   ar
    28    22    23   ar
    29    23    24   ar
    30    12     6   ar
    31    24    19   ar
    32    17    13   ar
    33    32    27   ar
    34    17    18    1
    35     1     4    1
@<TRIPOS>MOLECULE
*****
 32 35 0 0 0
SMALL
GASTEIGER

@<TRIPOS>ATOM
      1 N         141.4353  139.3478  163.6025 N.am    1  UNL1       -0.2806
      2 C         141.5908  140.5596  162.7323 C.2     1  UNL1        0.2495
      3 O         140.9983  141.8701  163.1585 O.2     1  UNL1       -0.2698
      4 H         141.8242  138.4877  163.3228 H       1  UNL1        0.1552
      5 C         138.4623  138.9492  163.6530 C.3     1  UNL1        0.0324
      6 C         139.2008  139.2471  164.9242 C.ar    1  UNL1       -0.0061
      7 C         138.4528  139.3458  166.2206 C.ar    1  UNL1        0.0267
      8 C         139.1913  139.6437  167.4918 C.ar    1  UNL1        0.1427
      9 F         138.4432  139.7423  168.7883 F       1  UNL1       -0.2041
     10 C         140.6777  139.8430  167.4666 C.ar    1  UNL1        0.0626
     11 C         141.4257  139.7443  166.1701 C.ar    1  UNL1        0.0196
     12 C         140.6872  139.4464  164.8990 C.ar    1  UNL1        0.0467
     13 C         141.4162  140.1409  168.7377 C.ar    1  UNL1        0.1428
     14 N         141.1423  141.2841  169.6694 N.ar    1  UNL1       -0.2253
     15 C         142.1151  141.1977  170.8079 C.ar    1  UNL1        0.1189
     16 C         142.9903  140.0010  170.5799 C.ar    1  UNL1        0.0945
     17 N         142.5584  139.3479  169.3005 N.ar    1  UNL1       -0.3361
     18 H         142.9549  138.5405  168.9003 H       1  UNL1        0.1674
     19 C         142.3389  140.4610  161.4358 C.ar    1  UNL1        0.0539
     20 C         142.4276  141.6522  160.5286 C.ar    1  UNL1        0.0076
     21 C         143.1756  141.5537  159.2322 C.ar    1  UNL1        0.0371
     22 C         143.8349  140.2638  158.8430 C.ar    1  UNL1        0.1391
     23 C         143.7462  139.0725  159.7502 C.ar    1  UNL1        0.0371
     24 C         142.9982  139.1711  161.0466 C.ar    1  UNL1        0.0076
     25 O         144.5830  140.1652  157.5465 O.3     1  UNL1       -0.4690
     26 C         143.8745  139.7118  156.3045 C.3     1  UNL1        0.2508
     27 C         143.4522  138.2795  156.1624 C.ar    1  UNL1        0.1026
     28 C         142.0464  137.8756  156.4948 C.ar    1  UNL1        0.0185
     29 C         141.6241  136.4433  156.3527 C.ar    1  UNL1        0.0029
     30 C         142.6076  135.4149  155.8782 C.ar    1  UNL1        0.0207
     31 C         144.0135  135.8189  155.5458 C.ar    1  UNL1        0.0986
     32 N         144.4357  137.2512  155.6879 N.ar    1  UNL1       -0.2445
@<TRIPOS>BOND
     1     5     6    1
     2     6     7   ar
     3     7     8   ar
     4     8     9    1
     5     8    10   ar
     6    10    13    1
     7    13    14   ar
     8    14    15   ar
     9    15    16   ar
    10    16    17   ar
    11    10    11   ar
    12    11    12   ar
    13    12     1    1
    14     1     2   am
    15     2     3    2
    16     2    19    1
    17    19    20   ar
    18    20    21   ar
    19    21    22   ar
    20    22    25    1
    21    25    26    1
    22    26    27    1
    23    27    28   ar
    24    28    29   ar
    25    29    30   ar
    26    30    31   ar
    27    31    32   ar
    28    22    23   ar
    29    23    24   ar
    30    12     6   ar
    31    24    19   ar
    32    17    13   ar
    33    32    27   ar
    34    17    18    1
    35     1     4    1
@<TRIPOS>MOLECULE
*****
 32 35 0 0 0
SMALL
GASTEIGER

@<TRIPOS>ATOM
      1 N         140.4473  141.4398  163.4985 N.am    1  UNL1       -0.2806
      2 C         139.8248  142.6824  162.9343 C.2     1  UNL1        0.2495
      3 O         138.5637  143.2288  163.5352 O.2     1  UNL1       -0.2698
      4 H         141.2750  141.0812  163.1041 H       1  UNL1        0.1552
      5 C         138.3444  139.3521  163.0297 C.3     1  UNL1        0.0324
      6 C         138.7573  139.6997  164.4292 C.ar    1  UNL1       -0.0061
      7 C         138.1188  139.0035  165.5944 C.ar    1  UNL1        0.0267
      8 C         138.5317  139.3512  166.9939 C.ar    1  UNL1        0.1427
      9 F         137.8931  138.6549  168.1591 F       1  UNL1       -0.2041
     10 C         139.5830  140.3950  167.2283 C.ar    1  UNL1        0.0626
     11 C         140.2216  141.0912  166.0632 C.ar    1  UNL1        0.0196
     12 C         139.8087  140.7435  164.6636 C.ar    1  UNL1        0.0467
     13 C         139.9959  140.7426  168.6278 C.ar    1  UNL1        0.1428
     14 N         140.2799  139.7671  169.7314 N.ar    1  UNL1       -0.2253
     15 C         140.6568  140.5484  170.9551 C.ar    1  UNL1        0.1189
     16 C         140.6057  142.0068  170.6079 C.ar    1  UNL1        0.0945
     17 N         140.1973  142.1268  169.1696 N.ar    1  UNL1       -0.3361
     18 H         140.0816  142.9666  168.6690 H       1  UNL1        0.1674
     19 C         140.4633  143.3786  161.7691 C.ar    1  UNL1        0.0539
     20 C         141.7495  142.8592  161.1981 C.ar    1  UNL1        0.0076
     21 C         142.3881  143.5554  160.0330 C.ar    1  UNL1        0.0371
     22 C         141.7405  144.7710  159.4389 C.ar    1  UNL1        0.1391
     23 C         140.4544  145.2904  160.0099 C.ar    1  UNL1        0.0371
     24 C         139.8158  144.5942  161.1750 C.ar    1  UNL1        0.0076
     25 O         142.3791  145.4672  158.2737 O.3     1  UNL1       -0.4690
     26 C         142.0938  145.0049  156.8756 C.3     1  UNL1        0.2508
     27 C         140.7252  145.1880  156.2897 C.ar    1  UNL1        0.1026
     28 C         139.9326  143.9937  155.8477 C.ar    1  UNL1        0.0185
     29 C         138.5640  144.1768  155.2618 C.ar    1  UNL1        0.0029
     30 C         137.9879  145.5543  155.1178 C.ar    1  UNL1        0.0207
     31 C         138.7805  146.7486  155.5598 C.ar    1  UNL1        0.0986
     32 N         140.1492  146.5655  156.1457 N.ar    1  UNL1       -0.2445
@<TRIPOS>BOND
     1     5     6    1
     2     6     7   ar
     3     7     8   ar
     4     8     9    1
     5     8    10   ar
     6    10    13    1
     7    13    14   ar
     8    14    15   ar
     9    15    16   ar
    10    16    17   ar
    11    10    11   ar
    12    11    12   ar
    13    12     1    1
    14     1     2   am
    15     2     3    2
    16     2    19    1
    17    19    20   ar
    18    20    21   ar
    19    21    22   ar
    20    22    25    1
    21    25    26    1
    22    26    27    1
    23    27    28   ar
    24    28    29   ar
    25    29    30   ar
    26    30    31   ar
    27    31    32   ar
    28    22    23   ar
    29    23    24   ar
    30    12     6   ar
    31    24    19   ar
    32    17    13   ar
    33    32    27   ar
    34    17    18    1
    35     1     4    1
@<TRIPOS>MOLECULE
*****
 32 35 0 0 0
SMALL
GASTEIGER

@<TRIPOS>ATOM
      1 N         141.7621  143.1251  161.4330 N.am    1  UNL1       -0.2806
      2 C         142.5528  143.7066  162.5673 C.2     1  UNL1        0.2495
      3 O         143.6457  144.6958  162.2901 O.2     1  UNL1       -0.2698
      4 H         141.0447  142.4759  161.6150 H       1  UNL1        0.1552
      5 C         140.3633  145.4865  160.2217 C.3     1  UNL1        0.0324
      6 C         141.3649  144.7136  159.4158 C.ar    1  UNL1       -0.0061
      7 C         141.6671  145.1214  158.0044 C.ar    1  UNL1        0.0267
      8 C         142.6687  144.3485  157.1985 C.ar    1  UNL1        0.1427
      9 F         142.9709  144.7563  155.7869 F       1  UNL1       -0.2041
     10 C         143.3681  143.1678  157.8041 C.ar    1  UNL1        0.0626
     11 C         143.0659  142.7601  159.2156 C.ar    1  UNL1        0.0196
     12 C         142.0643  143.5330  160.0215 C.ar    1  UNL1        0.0467
     13 C         144.3697  142.3949  156.9983 C.ar    1  UNL1        0.1428
     14 N         144.3137  140.9268  156.6956 N.ar    1  UNL1       -0.2253
     15 C         145.5126  140.5790  155.8638 C.ar    1  UNL1        0.1189
     16 C         146.3095  141.8321  155.6525 C.ar    1  UNL1        0.0945
     17 N         145.6031  142.9544  156.3536 N.ar    1  UNL1       -0.3361
     18 H         145.8974  143.8933  156.3851 H       1  UNL1        0.1674
     19 C         142.2506  143.2987  163.9789 C.ar    1  UNL1        0.0539
     20 C         140.8713  143.4913  164.5362 C.ar    1  UNL1        0.0076
     21 C         140.5691  143.0836  165.9477 C.ar    1  UNL1        0.0371
     22 C         141.6461  142.4832  166.8018 C.ar    1  UNL1        0.1391
     23 C         143.0253  142.2906  166.2445 C.ar    1  UNL1        0.0371
     24 C         143.3276  142.6984  164.8330 C.ar    1  UNL1        0.0076
     25 O         141.3439  142.0754  168.2134 O.3     1  UNL1       -0.4690
     26 C         140.9827  140.6526  168.5220 C.3     1  UNL1        0.2508
     27 C         140.2143  139.8401  167.5223 C.ar    1  UNL1        0.1026
     28 C         138.7507  139.5852  167.7290 C.ar    1  UNL1        0.0185
     29 C         137.9824  138.7727  166.7292 C.ar    1  UNL1        0.0029
     30 C         138.6777  138.2151  165.5227 C.ar    1  UNL1        0.0207
     31 C         140.1414  138.4700  165.3160 C.ar    1  UNL1        0.0986
     32 N         140.9097  139.2825  166.3158 N.ar    1  UNL1       -0.2445
@<TRIPOS>BOND
     1     5     6    1
     2     6     7   ar
     3     7     8   ar
     4     8     9    1
     5     8    10   ar
     6    10    13    1
     7    13    14   ar
     8    14    15   ar
     9    15    16   ar
    10    16    17   ar
    11    10    11   ar
    12    11    12   ar
    13    12     1    1
    14     1     2   am
    15     2     3    2
    16     2    19    1
    17    19    20   ar
    18    20    21   ar
    19    21    22   ar
    20    22    25    1
    21    25    26    1
    22    26    27    1
    23    27    28   ar
    24    28    29   ar
    25    29    30   ar
    26    30    31   ar
    27    31    32   ar
    28    22    23   ar
    29    23    24   ar
    30    12     6   ar
    31    24    19   ar
    32    17    13   ar
    33    32    27   ar
    34    17    18    1
    35     1     4    1
