@<TRIPOS>MOLECULE
*****
 29 32 0 0 0
SMALL
GASTEIGER

@<TRIPOS>ATOM
      1 N         142.9381  137.5078  157.4803 N.am    1  UNL1       -0.2542
      2 C         142.9256  137.6793  158.9705 C.3     1  UNL1        0.1254
      3 C         143.2652  139.0093  159.5752 C.3     1  UNL1        0.1145
      4 C         142.9131  137.8508  160.4605 C.3     1  UNL1        0.0463
      5 C         142.9006  138.0223  161.9506 C.3     1  UNL1        0.0746
      6 N         143.2402  139.3523  162.5554 N.3     1  UNL1       -0.2722
      7 C         143.5924  140.5108  161.6700 C.3     1  UNL1        0.0746
      8 C         143.6049  140.3393  160.1800 C.3     1  UNL1        0.0463
      9 O         143.6174  140.1678  158.6898 O.3     1  UNL1       -0.3500
     10 C         143.6299  139.9963  157.1997 C.3     1  UNL1        0.1912
     11 C         143.9821  141.1548  156.3143 C.3     1  UNL1        0.0420
     12 C         143.2903  138.6663  156.5950 C.2     1  UNL1        0.2566
     13 O         143.3028  138.4948  155.1048 O.2     1  UNL1       -0.2719
     14 C         143.0514  133.6300  156.6436 C.ar    1  UNL1        0.1400
     15 C         141.9192  133.5178  155.6660 C.ar    1  UNL1        0.0370
     16 C         141.1267  134.7355  155.2932 C.ar    1  UNL1        0.0044
     17 C         141.4664  136.0655  155.8980 C.ar    1  UNL1        0.0151
     18 C         142.5985  136.1778  156.8755 C.ar    1  UNL1        0.0570
     19 C         143.3910  134.9600  157.2484 C.ar    1  UNL1        0.0518
     20 C         145.0325  132.5393  157.9224 C.3     1  UNL1        0.2525
     21 O         143.8438  132.4123  157.0164 O.3     1  UNL1       -0.4714
     22 C         143.2277  139.5238  164.0455 C.3     1  UNL1        0.0768
     23 C         142.6343  138.4578  164.9182 C.3     1  UNL1        0.0437
     24 C         141.1884  138.5289  165.3110 C.ar    1  UNL1       -0.0208
     25 C         140.7312  139.5535  166.3066 C.ar    1  UNL1       -0.0042
     26 C         139.2853  139.6245  166.6994 C.ar    1  UNL1       -0.0003
     27 C         138.2966  138.6710  166.0966 C.ar    1  UNL1       -0.0000
     28 C         138.7538  137.6464  165.1011 C.ar    1  UNL1       -0.0003
     29 C         140.1997  137.5754  164.7083 C.ar    1  UNL1       -0.0042
@<TRIPOS>BOND
     1    20    21    1
     2    21    14    1
     3    14    15   ar
     4    15    16   ar
     5    16    17   ar
     6    17    18   ar
     7    18     1    1
     8     1     2    1
     9     2     3    1
    10     3     4    1
    11     4     5    1
    12     5     6    1
    13     6    22    1
    14    22    23    1
    15    23    24    1
    16    24    25   ar
    17    25    26   ar
    18    26    27   ar
    19    27    28   ar
    20    28    29   ar
    21     6     7    1
    22     7     8    1
    23     3     9    1
    24     9    10    1
    25    10    11    1
    26    10    12    1
    27    12    13    2
    28    18    19   ar
    29    19    14   ar
    30    12     1   am
    31     8     3    1
    32    29    24   ar
@<TRIPOS>MOLECULE
*****
 29 32 0 0 0
SMALL
GASTEIGER

@<TRIPOS>ATOM
      1 N         142.6259  137.1279  156.8101 N.am    1  UNL1       -0.2542
      2 C         141.6088  137.7705  157.7061 C.3     1  UNL1        0.1254
      3 C         141.7311  139.2234  158.0585 C.3     1  UNL1        0.1145
      4 C         140.5917  138.4131  158.6019 C.3     1  UNL1        0.0463
      5 C         139.5747  139.0557  159.4978 C.3     1  UNL1        0.0746
      6 N         139.6970  140.5086  159.8503 N.3     1  UNL1       -0.2722
      7 C         140.8363  141.3188  159.3069 C.3     1  UNL1        0.0746
      8 C         141.8534  140.6762  158.4110 C.3     1  UNL1        0.0463
      9 O         142.8705  140.0336  157.5150 O.3     1  UNL1       -0.3500
     10 C         143.8875  139.3910  156.6192 C.3     1  UNL1        0.1912
     11 C         145.0269  140.2013  156.0757 C.3     1  UNL1        0.0420
     12 C         143.7652  137.9382  156.2667 C.2     1  UNL1        0.2566
     13 O         144.7823  137.2956  155.3707 O.2     1  UNL1       -0.2719
     14 C         143.1334  133.1928  156.8957 C.ar    1  UNL1        0.1400
     15 C         142.2590  132.7693  155.7527 C.ar    1  UNL1        0.0370
     16 C         141.5070  133.7987  154.9623 C.ar    1  UNL1        0.0044
     17 C         141.6293  135.2516  155.3148 C.ar    1  UNL1        0.0151
     18 C         142.5036  135.6750  156.4576 C.ar    1  UNL1        0.0570
     19 C         143.2557  134.6456  157.2481 C.ar    1  UNL1        0.0518
     20 C         145.3829  132.2171  157.7546 C.3     1  UNL1        0.2525
     21 O         143.8854  132.1634  157.6861 O.3     1  UNL1       -0.4714
     22 C         138.6799  141.1511  160.7462 C.3     1  UNL1        0.0768
     23 C         137.7019  140.3009  161.5015 C.3     1  UNL1        0.0437
     24 C         138.0781  139.7319  162.8376 C.ar    1  UNL1       -0.0208
     25 C         138.5948  138.3272  162.9360 C.ar    1  UNL1       -0.0042
     26 C         138.9709  137.7583  164.2719 C.ar    1  UNL1       -0.0003
     27 C         138.8303  138.5942  165.5095 C.ar    1  UNL1       -0.0000
     28 C         138.3135  139.9989  165.4111 C.ar    1  UNL1       -0.0003
     29 C         137.9374  140.5677  164.0751 C.ar    1  UNL1       -0.0042
@<TRIPOS>BOND
     1    20    21    1
     2    21    14    1
     3    14    15   ar
     4    15    16   ar
     5    16    17   ar
     6    17    18   ar
     7    18     1    1
     8     1     2    1
     9     2     3    1
    10     3     4    1
    11     4     5    1
    12     5     6    1
    13     6    22    1
    14    22    23    1
    15    23    24    1
    16    24    25   ar
    17    25    26   ar
    18    26    27   ar
    19    27    28   ar
    20    28    29   ar
    21     6     7    1
    22     7     8    1
    23     3     9    1
    24     9    10    1
    25    10    11    1
    26    10    12    1
    27    12    13    2
    28    18    19   ar
    29    19    14   ar
    30    12     1   am
    31     8     3    1
    32    29    24   ar
@<TRIPOS>MOLECULE
*****
 29 32 0 0 0
SMALL
GASTEIGER

@<TRIPOS>ATOM
      1 N         142.2947  138.3494  158.3367 N.am    1  UNL1       -0.2542
      2 C         141.5555  138.3177  159.6417 C.3     1  UNL1        0.1254
      3 C         141.7474  139.4212  160.6394 C.3     1  UNL1        0.1145
      4 C         140.8164  138.2859  160.9465 C.3     1  UNL1        0.0463
      5 C         140.0773  138.2542  162.2513 C.3     1  UNL1        0.0746
      6 N         140.2692  139.3577  163.2491 N.3     1  UNL1       -0.2722
      7 C         141.2002  140.4930  162.9419 C.3     1  UNL1        0.0746
      8 C         141.9393  140.5247  161.6371 C.3     1  UNL1        0.0463
      9 O         142.6785  140.5565  160.3322 O.3     1  UNL1       -0.3500
     10 C         143.4176  140.5882  159.0273 C.3     1  UNL1        0.1912
     11 C         144.3487  141.7235  158.7201 C.3     1  UNL1        0.0420
     12 C         143.2257  139.4847  158.0296 C.2     1  UNL1        0.2566
     13 O         143.9649  139.5165  156.7247 O.2     1  UNL1       -0.2719
     14 C         142.8379  134.9631  156.3398 C.ar    1  UNL1        0.1400
     15 C         141.7189  135.0389  155.3436 C.ar    1  UNL1        0.0370
     16 C         140.7920  136.2182  155.3452 C.ar    1  UNL1        0.0044
     17 C         140.9839  137.3217  156.3429 C.ar    1  UNL1        0.0151
     18 C         142.1027  137.2459  157.3390 C.ar    1  UNL1        0.0570
     19 C         143.0298  136.0666  157.3375 C.ar    1  UNL1        0.0518
     20 C         144.3047  133.2525  157.6329 C.3     1  UNL1        0.2525
     21 O         143.7648  133.7838  156.3382 O.3     1  UNL1       -0.4714
     22 C         139.5300  139.3259  164.5540 C.3     1  UNL1        0.0768
     23 C         138.3425  140.2177  164.7652 C.3     1  UNL1        0.0437
     24 C         138.5290  141.7022  164.8727 C.ar    1  UNL1       -0.0208
     25 C         137.6575  142.6272  164.0760 C.ar    1  UNL1       -0.0042
     26 C         137.8440  144.1116  164.1835 C.ar    1  UNL1       -0.0003
     27 C         138.9020  144.6711  165.0878 C.ar    1  UNL1       -0.0000
     28 C         139.7735  143.7460  165.8845 C.ar    1  UNL1       -0.0003
     29 C         139.5870  142.2616  165.7769 C.ar    1  UNL1       -0.0042
@<TRIPOS>BOND
     1    20    21    1
     2    21    14    1
     3    14    15   ar
     4    15    16   ar
     5    16    17   ar
     6    17    18   ar
     7    18     1    1
     8     1     2    1
     9     2     3    1
    10     3     4    1
    11     4     5    1
    12     5     6    1
    13     6    22    1
    14    22    23    1
    15    23    24    1
    16    24    25   ar
    17    25    26   ar
    18    26    27   ar
    19    27    28   ar
    20    28    29   ar
    21     6     7    1
    22     7     8    1
    23     3     9    1
    24     9    10    1
    25    10    11    1
    26    10    12    1
    27    12    13    2
    28    18    19   ar
    29    19    14   ar
    30    12     1   am
    31     8     3    1
    32    29    24   ar
@<TRIPOS>MOLECULE
*****
 29 32 0 0 0
SMALL
GASTEIGER

@<TRIPOS>ATOM
      1 N         143.7438  142.8096  158.5448 N.am    1  UNL1       -0.2542
      2 C         144.0165  142.6106  160.0064 C.3     1  UNL1        0.1254
      3 C         143.2534  143.4027  161.0263 C.3     1  UNL1        0.1145
      4 C         144.2892  142.4117  161.4679 C.3     1  UNL1        0.0463
      5 C         144.5618  142.2128  162.9294 C.3     1  UNL1        0.0746
      6 N         143.7987  143.0049  163.9493 N.3     1  UNL1       -0.2722
      7 C         142.7629  143.9958  163.5077 C.3     1  UNL1        0.0746
      8 C         142.4902  144.1947  162.0462 C.3     1  UNL1        0.0463
      9 O         142.2175  144.3937  160.5847 O.3     1  UNL1       -0.3500
     10 C         141.9448  144.5926  159.1232 C.3     1  UNL1        0.1912
     11 C         140.9089  145.5835  158.6815 C.3     1  UNL1        0.0420
     12 C         142.7080  143.8005  158.1032 C.2     1  UNL1        0.2566
     13 O         142.4352  143.9994  156.6417 O.2     1  UNL1       -0.2719
     14 C         146.6427  141.6642  156.0882 C.ar    1  UNL1        0.1400
     15 C         146.0333  140.4334  155.4850 C.ar    1  UNL1        0.0370
     16 C         144.6608  139.9947  155.9018 C.ar    1  UNL1        0.0044
     17 C         143.8976  140.7867  156.9217 C.ar    1  UNL1        0.0151
     18 C         144.5069  142.0175  157.5249 C.ar    1  UNL1        0.0570
     19 C         145.8795  142.4563  157.1082 C.ar    1  UNL1        0.0518
     20 C         148.2802  142.4830  154.2448 C.3     1  UNL1        0.2525
     21 O         148.0152  142.1030  155.6715 O.3     1  UNL1       -0.4714
     22 C         144.0714  142.8060  165.4109 C.3     1  UNL1        0.0768
     23 C         143.2554  141.8250  166.1994 C.3     1  UNL1        0.0437
     24 C         142.5703  142.2616  167.4604 C.ar    1  UNL1       -0.0208
     25 C         143.3502  142.3765  168.7365 C.ar    1  UNL1       -0.0042
     26 C         142.6650  142.8131  169.9974 C.ar    1  UNL1       -0.0003
     27 C         141.2000  143.1347  169.9822 C.ar    1  UNL1       -0.0000
     28 C         140.4201  143.0198  168.7061 C.ar    1  UNL1       -0.0003
     29 C         141.1052  142.5832  167.4452 C.ar    1  UNL1       -0.0042
@<TRIPOS>BOND
     1    20    21    1
     2    21    14    1
     3    14    15   ar
     4    15    16   ar
     5    16    17   ar
     6    17    18   ar
     7    18     1    1
     8     1     2    1
     9     2     3    1
    10     3     4    1
    11     4     5    1
    12     5     6    1
    13     6    22    1
    14    22    23    1
    15    23    24    1
    16    24    25   ar
    17    25    26   ar
    18    26    27   ar
    19    27    28   ar
    20    28    29   ar
    21     6     7    1
    22     7     8    1
    23     3     9    1
    24     9    10    1
    25    10    11    1
    26    10    12    1
    27    12    13    2
    28    18    19   ar
    29    19    14   ar
    30    12     1   am
    31     8     3    1
    32    29    24   ar
@<TRIPOS>MOLECULE
*****
 29 32 0 0 0
SMALL
GASTEIGER

@<TRIPOS>ATOM
      1 N         142.7524  138.6204  157.9889 N.am    1  UNL1       -0.2542
      2 C         142.7362  138.3852  159.4703 C.3     1  UNL1        0.1254
      3 C         143.3910  139.3697  160.3932 C.3     1  UNL1        0.1145
      4 C         142.7200  138.1500  160.9516 C.3     1  UNL1        0.0463
      5 C         142.7038  137.9148  162.4329 C.3     1  UNL1        0.0746
      6 N         143.3586  138.8994  163.3559 N.3     1  UNL1       -0.2722
      7 C         144.0297  140.1191  162.7975 C.3     1  UNL1        0.0746
      8 C         144.0459  140.3543  161.3162 C.3     1  UNL1        0.0463
      9 O         144.0621  140.5895  159.8348 O.3     1  UNL1       -0.3500
     10 C         144.0783  140.8247  158.3534 C.3     1  UNL1        0.1912
     11 C         144.7494  142.0445  157.7950 C.3     1  UNL1        0.0420
     12 C         143.4235  139.8402  157.4305 C.2     1  UNL1        0.2566
     13 O         143.4397  140.0754  155.9491 O.2     1  UNL1       -0.2719
     14 C         139.9869  136.7899  155.8092 C.ar    1  UNL1        0.1400
     15 C         140.7878  135.6667  155.2201 C.ar    1  UNL1        0.0370
     16 C         142.2436  135.5282  155.5539 C.ar    1  UNL1        0.0044
     17 C         142.8985  136.5127  156.4769 C.ar    1  UNL1        0.0151
     18 C         142.0976  137.6358  157.0660 C.ar    1  UNL1        0.0570
     19 C         140.6417  137.7745  156.7321 C.ar    1  UNL1        0.0518
     20 C         138.0555  138.0975  154.6647 C.3     1  UNL1        0.2525
     21 O         138.5311  136.9285  155.4753 O.3     1  UNL1       -0.4714
     22 C         143.3424  138.6641  164.8373 C.3     1  UNL1        0.0768
     23 C         142.5028  139.5335  165.7256 C.3     1  UNL1        0.0437
     24 C         141.0516  139.2149  165.9321 C.ar    1  UNL1       -0.0208
     25 C         140.3747  138.2005  165.0588 C.ar    1  UNL1       -0.0042
     26 C         138.9236  137.8819  165.2653 C.ar    1  UNL1       -0.0003
     27 C         138.1493  138.5777  166.3453 C.ar    1  UNL1       -0.0000
     28 C         138.8262  139.5921  167.2187 C.ar    1  UNL1       -0.0003
     29 C         140.2773  139.9107  167.0121 C.ar    1  UNL1       -0.0042
@<TRIPOS>BOND
     1    20    21    1
     2    21    14    1
     3    14    15   ar
     4    15    16   ar
     5    16    17   ar
     6    17    18   ar
     7    18     1    1
     8     1     2    1
     9     2     3    1
    10     3     4    1
    11     4     5    1
    12     5     6    1
    13     6    22    1
    14    22    23    1
    15    23    24    1
    16    24    25   ar
    17    25    26   ar
    18    26    27   ar
    19    27    28   ar
    20    28    29   ar
    21     6     7    1
    22     7     8    1
    23     3     9    1
    24     9    10    1
    25    10    11    1
    26    10    12    1
    27    12    13    2
    28    18    19   ar
    29    19    14   ar
    30    12     1   am
    31     8     3    1
    32    29    24   ar
@<TRIPOS>MOLECULE
*****
 29 32 0 0 0
SMALL
GASTEIGER

@<TRIPOS>ATOM
      1 N         143.8439  142.1856  158.8791 N.am    1  UNL1       -0.2542
      2 C         143.9698  141.4677  160.1902 C.3     1  UNL1        0.1254
      3 C         143.1906  141.9401  161.3817 C.3     1  UNL1        0.1145
      4 C         144.0956  140.7499  161.5013 C.3     1  UNL1        0.0463
      5 C         144.2215  140.0322  162.8123 C.3     1  UNL1        0.0746
      6 N         143.4423  140.5046  164.0038 N.3     1  UNL1       -0.2722
      7 C         142.5373  141.6948  163.8843 C.3     1  UNL1        0.0746
      8 C         142.4115  142.4126  162.5732 C.3     1  UNL1        0.0463
      9 O         142.2856  143.1304  161.2621 O.3     1  UNL1       -0.3500
     10 C         142.1598  143.8482  159.9511 C.3     1  UNL1        0.1912
     11 C         141.2547  145.0385  159.8315 C.3     1  UNL1        0.0420
     12 C         142.9389  143.3758  158.7595 C.2     1  UNL1        0.2566
     13 O         142.8131  144.0936  157.4484 O.2     1  UNL1       -0.2719
     14 C         146.7105  141.8884  156.1506 C.ar    1  UNL1        0.1400
     15 C         146.1815  140.7683  155.3046 C.ar    1  UNL1        0.0370
     16 C         144.8734  140.1207  155.6501 C.ar    1  UNL1        0.0044
     17 C         144.0942  140.5931  156.8416 C.ar    1  UNL1        0.0151
     18 C         144.6231  141.7131  157.6876 C.ar    1  UNL1        0.0570
     19 C         145.9313  142.3608  157.3421 C.ar    1  UNL1        0.0518
     20 C         149.1927  141.6904  155.4092 C.3     1  UNL1        0.2525
     21 O         148.0186  142.5359  155.8051 O.3     1  UNL1       -0.4714
     22 C         143.5682  139.7867  165.3149 C.3     1  UNL1        0.0768
     23 C         142.7669  138.5446  165.5698 C.3     1  UNL1        0.0437
     24 C         141.2715  138.6218  165.6590 C.ar    1  UNL1       -0.0208
     25 C         140.4227  137.6875  164.8487 C.ar    1  UNL1       -0.0042
     26 C         138.9273  137.7648  164.9378 C.ar    1  UNL1       -0.0003
     27 C         138.2809  138.7762  165.8373 C.ar    1  UNL1       -0.0000
     28 C         139.1297  139.7105  166.6476 C.ar    1  UNL1       -0.0003
     29 C         140.6250  139.6332  166.5584 C.ar    1  UNL1       -0.0042
@<TRIPOS>BOND
     1    20    21    1
     2    21    14    1
     3    14    15   ar
     4    15    16   ar
     5    16    17   ar
     6    17    18   ar
     7    18     1    1
     8     1     2    1
     9     2     3    1
    10     3     4    1
    11     4     5    1
    12     5     6    1
    13     6    22    1
    14    22    23    1
    15    23    24    1
    16    24    25   ar
    17    25    26   ar
    18    26    27   ar
    19    27    28   ar
    20    28    29   ar
    21     6     7    1
    22     7     8    1
    23     3     9    1
    24     9    10    1
    25    10    11    1
    26    10    12    1
    27    12    13    2
    28    18    19   ar
    29    19    14   ar
    30    12     1   am
    31     8     3    1
    32    29    24   ar
@<TRIPOS>MOLECULE
*****
 29 32 0 0 0
SMALL
GASTEIGER

@<TRIPOS>ATOM
      1 N         141.5880  138.4600  158.3328 N.am    1  UNL1       -0.2542
      2 C         141.8867  138.2857  159.7924 C.3     1  UNL1        0.1254
      3 C         140.9484  138.8427  160.8217 C.3     1  UNL1        0.1145
      4 C         142.1853  138.1114  161.2520 C.3     1  UNL1        0.0463
      5 C         142.4840  137.9371  162.7115 C.3     1  UNL1        0.0746
      6 N         141.5457  138.4940  163.7408 N.3     1  UNL1       -0.2722
      7 C         140.3088  139.2253  163.3105 C.3     1  UNL1        0.0746
      8 C         140.0102  139.3996  161.8510 C.3     1  UNL1        0.0463
      9 O         139.7114  139.5740  160.3913 O.3     1  UNL1       -0.3500
     10 C         139.4128  139.7483  158.9318 C.3     1  UNL1        0.1912
     11 C         138.1758  140.4796  158.5014 C.3     1  UNL1        0.0420
     12 C         140.3511  139.1913  157.9025 C.2     1  UNL1        0.2566
     13 O         140.0523  139.3657  156.4429 O.2     1  UNL1       -0.2719
     14 C         143.6537  135.8627  156.1563 C.ar    1  UNL1        0.1400
     15 C         144.4028  136.7891  155.2449 C.ar    1  UNL1        0.0370
     16 C         144.2136  138.2724  155.3628 C.ar    1  UNL1        0.0044
     17 C         143.2753  138.8294  156.3920 C.ar    1  UNL1        0.0151
     18 C         142.5262  137.9031  157.3035 C.ar    1  UNL1        0.0570
     19 C         142.7154  136.4197  157.1856 C.ar    1  UNL1        0.0518
     20 C         144.0133  133.5446  157.2730 C.3     1  UNL1        0.2525
     21 O         143.8429  134.3794  156.0385 O.3     1  UNL1       -0.4714
     22 C         141.8445  138.3197  165.2004 C.3     1  UNL1        0.0768
     23 C         143.1659  138.7639  165.7538 C.3     1  UNL1        0.0437
     24 C         143.7920  140.0380  165.2691 C.ar    1  UNL1       -0.0208
     25 C         144.9840  139.9893  164.3599 C.ar    1  UNL1       -0.0042
     26 C         145.6100  141.2634  163.8752 C.ar    1  UNL1       -0.0003
     27 C         145.0439  142.5860  164.2997 C.ar    1  UNL1       -0.0000
     28 C         143.8519  142.6346  165.2089 C.ar    1  UNL1       -0.0003
     29 C         143.2259  141.3606  165.6936 C.ar    1  UNL1       -0.0042
@<TRIPOS>BOND
     1    20    21    1
     2    21    14    1
     3    14    15   ar
     4    15    16   ar
     5    16    17   ar
     6    17    18   ar
     7    18     1    1
     8     1     2    1
     9     2     3    1
    10     3     4    1
    11     4     5    1
    12     5     6    1
    13     6    22    1
    14    22    23    1
    15    23    24    1
    16    24    25   ar
    17    25    26   ar
    18    26    27   ar
    19    27    28   ar
    20    28    29   ar
    21     6     7    1
    22     7     8    1
    23     3     9    1
    24     9    10    1
    25    10    11    1
    26    10    12    1
    27    12    13    2
    28    18    19   ar
    29    19    14   ar
    30    12     1   am
    31     8     3    1
    32    29    24   ar
@<TRIPOS>MOLECULE
*****
 29 32 0 0 0
SMALL
GASTEIGER

@<TRIPOS>ATOM
      1 N         140.7714  144.3311  158.1726 N.am    1  UNL1       -0.2542
      2 C         140.3557  144.3735  159.6133 C.3     1  UNL1        0.1254
      3 C         141.2940  143.8902  160.6791 C.3     1  UNL1        0.1145
      4 C         139.9402  144.4160  161.0539 C.3     1  UNL1        0.0463
      5 C         139.5246  144.4584  162.4945 C.3     1  UNL1        0.0746
      6 N         140.4629  143.9750  163.5603 N.3     1  UNL1       -0.2722
      7 C         141.8167  143.4492  163.1855 C.3     1  UNL1        0.0746
      8 C         142.2323  143.4068  161.7449 C.3     1  UNL1        0.0463
      9 O         142.6479  143.3643  160.3042 O.3     1  UNL1       -0.3500
     10 C         143.0635  143.3219  158.8636 C.3     1  UNL1        0.1912
     11 C         144.4174  142.7960  158.4887 C.3     1  UNL1        0.0420
     12 C         142.1252  143.8052  157.7978 C.2     1  UNL1        0.2566
     13 O         142.5408  143.7628  156.3571 O.2     1  UNL1       -0.2719
     14 C         138.9010  146.7418  155.6348 C.ar    1  UNL1        0.1400
     15 C         137.9565  145.7812  154.9752 C.ar    1  UNL1        0.0370
     16 C         137.9503  144.3373  155.3813 C.ar    1  UNL1        0.0044
     17 C         138.8886  143.8539  156.4471 C.ar    1  UNL1        0.0151
     18 C         139.8331  144.8144  157.1068 C.ar    1  UNL1        0.0570
     19 C         139.8393  146.2585  156.7007 C.ar    1  UNL1        0.0518
     20 C         139.8886  148.6725  154.2040 C.3     1  UNL1        0.2525
     21 O         138.9072  148.1858  155.2287 O.3     1  UNL1       -0.4714
     22 C         140.0473  144.0175  165.0010 C.3     1  UNL1        0.0768
     23 C         140.5836  143.0026  165.9666 C.3     1  UNL1        0.0437
     24 C         139.8397  141.7206  166.1975 C.ar    1  UNL1       -0.0208
     25 C         138.9546  141.1630  165.1225 C.ar    1  UNL1       -0.0042
     26 C         138.2108  139.8811  165.3534 C.ar    1  UNL1       -0.0003
     27 C         138.3519  139.1569  166.6594 C.ar    1  UNL1       -0.0000
     28 C         139.2369  139.7145  167.7344 C.ar    1  UNL1       -0.0003
     29 C         139.9808  140.9964  167.5035 C.ar    1  UNL1       -0.0042
@<TRIPOS>BOND
     1    20    21    1
     2    21    14    1
     3    14    15   ar
     4    15    16   ar
     5    16    17   ar
     6    17    18   ar
     7    18     1    1
     8     1     2    1
     9     2     3    1
    10     3     4    1
    11     4     5    1
    12     5     6    1
    13     6    22    1
    14    22    23    1
    15    23    24    1
    16    24    25   ar
    17    25    26   ar
    18    26    27   ar
    19    27    28   ar
    20    28    29   ar
    21     6     7    1
    22     7     8    1
    23     3     9    1
    24     9    10    1
    25    10    11    1
    26    10    12    1
    27    12    13    2
    28    18    19   ar
    29    19    14   ar
    30    12     1   am
    31     8     3    1
    32    29    24   ar
@<TRIPOS>MOLECULE
*****
 29 32 0 0 0
SMALL
GASTEIGER

@<TRIPOS>ATOM
      1 N         140.8087  140.9048  162.8320 N.am    1  UNL1       -0.2542
      2 C         140.8389  140.2690  161.4737 C.3     1  UNL1        0.1254
      3 C         141.8817  139.2404  161.1501 C.3     1  UNL1        0.1145
      4 C         140.8692  139.6331  160.1155 C.3     1  UNL1        0.0463
      5 C         140.8994  138.9973  158.7573 C.3     1  UNL1        0.0746
      6 N         141.9422  137.9688  158.4337 N.3     1  UNL1       -0.2722
      7 C         142.9547  137.5760  159.4683 C.3     1  UNL1        0.0746
      8 C         142.9245  138.2118  160.8265 C.3     1  UNL1        0.0463
      9 O         142.8943  138.8477  162.1848 O.3     1  UNL1       -0.3500
     10 C         142.8640  139.4835  163.5430 C.3     1  UNL1        0.1912
     11 C         143.8766  139.0907  164.5777 C.3     1  UNL1        0.0420
     12 C         141.8213  140.5120  163.8666 C.2     1  UNL1        0.2566
     13 O         141.7911  141.1478  165.2249 O.2     1  UNL1       -0.2719
     14 C         138.7508  144.2980  162.7978 C.ar    1  UNL1        0.1400
     15 C         137.6804  143.9904  163.8028 C.ar    1  UNL1        0.0370
     16 C         137.6529  142.6544  164.4841 C.ar    1  UNL1        0.0044
     17 C         138.6957  141.6259  164.1605 C.ar    1  UNL1        0.0151
     18 C         139.7660  141.9333  163.1556 C.ar    1  UNL1        0.0570
     19 C         139.7936  143.2694  162.4742 C.ar    1  UNL1        0.0518
     20 C         139.9738  146.0379  161.3055 C.3     1  UNL1        0.2525
     21 O         138.7784  145.6340  162.1165 O.3     1  UNL1       -0.4714
     22 C         141.9724  137.3330  157.0754 C.3     1  UNL1        0.0768
     23 C         143.1744  136.5477  156.6415 C.3     1  UNL1        0.0437
     24 C         143.0164  135.1304  156.1759 C.ar    1  UNL1       -0.0208
     25 C         143.1265  134.0018  157.1578 C.ar    1  UNL1       -0.0042
     26 C         142.9685  132.5847  156.6922 C.ar    1  UNL1       -0.0003
     27 C         142.7004  132.2962  155.2449 C.ar    1  UNL1       -0.0000
     28 C         142.5904  133.4248  154.2630 C.ar    1  UNL1       -0.0003
     29 C         142.7484  134.8419  154.7285 C.ar    1  UNL1       -0.0042
@<TRIPOS>BOND
     1    20    21    1
     2    21    14    1
     3    14    15   ar
     4    15    16   ar
     5    16    17   ar
     6    17    18   ar
     7    18     1    1
     8     1     2    1
     9     2     3    1
    10     3     4    1
    11     4     5    1
    12     5     6    1
    13     6    22    1
    14    22    23    1
    15    23    24    1
    16    24    25   ar
    17    25    26   ar
    18    26    27   ar
    19    27    28   ar
    20    28    29   ar
    21     6     7    1
    22     7     8    1
    23     3     9    1
    24     9    10    1
    25    10    11    1
    26    10    12    1
    27    12    13    2
    28    18    19   ar
    29    19    14   ar
    30    12     1   am
    31     8     3    1
    32    29    24   ar
