@<TRIPOS>MOLECULE
*****
 36 41 0 0 0
SMALL
GASTEIGER

@<TRIPOS>ATOM
      1 C         138.7255  138.8933  165.5343 C.ar    1  UNL1        0.0533
      2 C         139.2687  137.5711  165.0798 C.ar    1  UNL1        0.0042
      3 C         139.4912  137.3139  163.6189 C.ar    1  UNL1       -0.0022
      4 C         139.1705  138.3789  162.6125 C.ar    1  UNL1        0.0019
      5 C         138.6273  139.7011  163.0670 C.ar    1  UNL1       -0.0196
      6 C         138.4048  139.9583  164.5279 C.ar    1  UNL1        0.0003
      7 C         138.4056  140.5532  161.8526 C.3     1  UNL1        0.0519
      8 C         138.8117  139.7576  160.6476 C.2     1  UNL1        0.0074
      9 C         138.9257  139.7926  159.1523 C.2     1  UNL1        0.0976
     10 N         139.4689  138.4704  158.6978 N.2     1  UNL1       -0.1526
     11 N         139.6906  137.6183  159.9122 N.2     1  UNL1       -0.1678
     12 C         139.2845  138.4138  161.1172 C.3     1  UNL1        0.1672
     13 C         142.2059  142.7934  169.9982 C.3     1  UNL1        0.0897
     14 N         141.2802  141.8827  169.2475 N.3     1  UNL1       -0.2686
     15 C         141.5027  141.6255  167.7866 C.3     1  UNL1        0.0939
     16 C         140.5770  140.7147  167.0358 C.3     1  UNL1        0.1110
     17 N         139.4287  140.0613  167.7460 N.am    1  UNL1       -0.2732
     18 C         138.5029  139.1506  166.9953 C.2     1  UNL1        0.2491
     19 O         137.3546  138.4971  167.7055 O.2     1  UNL1       -0.2699
     20 C         139.2061  140.3185  169.2069 C.3     1  UNL1        0.1110
     21 C         140.1319  141.2292  169.9576 C.3     1  UNL1        0.0939
     22 C         138.5605  140.9471  158.2670 C.ar    1  UNL1        0.0265
     23 C         137.2978  141.0809  157.4684 C.ar    1  UNL1        0.0376
     24 S         137.3509  142.3870  156.7327 S.2     1  UNL1       -0.0780
     25 C         138.6463  143.0605  157.0766 C.ar    1  UNL1        0.0711
     26 C         139.3939  142.1706  158.0248 C.ar    1  UNL1        0.0168
     27 C         139.1124  144.3903  156.5625 C.1     1  UNL1       -0.0543
     28 C         139.5784  145.7202  156.0484 C.1     1  UNL1       -0.0388
     29 C         140.0445  147.0500  155.5344 C.3     1  UNL1        0.2814
     30 O         139.2138  147.8014  154.5367 O.3     1  UNL1       -0.4612
     31 C         139.2486  149.3008  154.5095 C.ar    1  UNL1        0.1400
     32 C         139.8704  150.0156  153.3466 C.ar    1  UNL1        0.0369
     33 C         139.9052  151.5149  153.3193 C.ar    1  UNL1        0.0031
     34 C         139.3181  152.2995  154.4549 C.ar    1  UNL1        0.0002
     35 C         138.6962  151.5847  155.6178 C.ar    1  UNL1        0.0031
     36 C         138.6614  150.0854  155.6451 C.ar    1  UNL1        0.0369
@<TRIPOS>BOND
     1    13    14    1
     2    14    15    1
     3    15    16    1
     4    16    17    1
     5    17    18   am
     6    18    19    2
     7    18     1    1
     8     1     2   ar
     9     2     3   ar
    10     3     4   ar
    11     4     5   ar
    12     5     6   ar
    13     5     7    1
    14     7     8    1
    15     8     9    2
    16     9    22    1
    17    22    23   ar
    18    23    24   ar
    19    24    25   ar
    20    25    27    1
    21    27    28    3
    22    28    29    1
    23    29    30    1
    24    30    31    1
    25    31    32   ar
    26    32    33   ar
    27    33    34   ar
    28    34    35   ar
    29    35    36   ar
    30    25    26   ar
    31     9    10    1
    32    10    11    2
    33    11    12    1
    34    17    20    1
    35    20    21    1
    36    21    14    1
    37     6     1   ar
    38    12     8    1
    39    12     4    1
    40    26    22   ar
    41    36    31   ar
@<TRIPOS>MOLECULE
*****
 36 41 0 0 0
SMALL
GASTEIGER

@<TRIPOS>ATOM
      1 C         138.4486  139.8434  164.5122 C.ar    1  UNL1        0.0533
      2 C         137.5536  140.8963  163.9290 C.ar    1  UNL1        0.0042
      3 C         137.5530  141.1448  162.4497 C.ar    1  UNL1       -0.0022
      4 C         138.4475  140.3403  161.5538 C.ar    1  UNL1        0.0019
      5 C         139.3426  139.2874  162.1370 C.ar    1  UNL1       -0.0196
      6 C         139.3431  139.0390  163.6163 C.ar    1  UNL1        0.0003
      7 C         140.1100  138.6568  161.0130 C.3     1  UNL1        0.0519
      8 C         139.6892  139.3200  159.7350 C.2     1  UNL1        0.0074
      9 C         139.9035  139.3401  158.2506 C.2     1  UNL1        0.0976
     10 N         139.0084  140.3930  157.6673 N.2     1  UNL1       -0.1526
     11 N         138.2410  141.0236  158.7913 N.2     1  UNL1       -0.1678
     12 C         138.6617  140.3605  160.0692 C.3     1  UNL1        0.1672
     13 C         142.1589  142.6873  169.5517 C.3     1  UNL1        0.0897
     14 N         141.2315  141.9142  168.6617 N.3     1  UNL1       -0.2686
     15 C         141.2309  142.1628  167.1824 C.3     1  UNL1        0.0939
     16 C         140.3035  141.3896  166.2923 C.3     1  UNL1        0.1110
     17 N         139.3766  140.3680  166.8816 N.am    1  UNL1       -0.2732
     18 C         138.4492  139.5949  165.9916 C.2     1  UNL1        0.2491
     19 O         137.5224  138.5733  166.5808 O.2     1  UNL1       -0.2699
     20 C         139.3772  140.1195  168.3609 C.3     1  UNL1        0.1110
     21 C         140.3046  140.8926  169.2509 C.3     1  UNL1        0.0939
     22 C         140.8471  138.4615  157.4840 C.ar    1  UNL1        0.0265
     23 C         142.2995  138.7377  157.2301 C.ar    1  UNL1        0.0376
     24 S         142.8540  137.5994  156.4259 S.2     1  UNL1       -0.0780
     25 C         141.7444  136.6198  156.1827 C.ar    1  UNL1        0.0711
     26 C         140.5041  137.1526  156.8367 C.ar    1  UNL1        0.0168
     27 C         141.8556  135.3332  155.4197 C.1     1  UNL1       -0.0543
     28 C         141.9669  134.0465  154.6566 C.1     1  UNL1       -0.0388
     29 C         142.0781  132.7600  153.8935 C.3     1  UNL1        0.2814
     30 O         143.3071  131.9109  154.0299 O.3     1  UNL1       -0.4612
     31 C         143.7269  131.4106  155.3804 C.ar    1  UNL1        0.1400
     32 C         143.1151  130.1610  155.9408 C.ar    1  UNL1        0.0369
     33 C         143.5349  129.6608  157.2911 C.ar    1  UNL1        0.0031
     34 C         144.5666  130.4102  158.0811 C.ar    1  UNL1        0.0002
     35 C         145.1784  131.6598  157.5206 C.ar    1  UNL1        0.0031
     36 C         144.7586  132.1600  156.1703 C.ar    1  UNL1        0.0369
@<TRIPOS>BOND
     1    13    14    1
     2    14    15    1
     3    15    16    1
     4    16    17    1
     5    17    18   am
     6    18    19    2
     7    18     1    1
     8     1     2   ar
     9     2     3   ar
    10     3     4   ar
    11     4     5   ar
    12     5     6   ar
    13     5     7    1
    14     7     8    1
    15     8     9    2
    16     9    22    1
    17    22    23   ar
    18    23    24   ar
    19    24    25   ar
    20    25    27    1
    21    27    28    3
    22    28    29    1
    23    29    30    1
    24    30    31    1
    25    31    32   ar
    26    32    33   ar
    27    33    34   ar
    28    34    35   ar
    29    35    36   ar
    30    25    26   ar
    31     9    10    1
    32    10    11    2
    33    11    12    1
    34    17    20    1
    35    20    21    1
    36    21    14    1
    37     6     1   ar
    38    12     8    1
    39    12     4    1
    40    26    22   ar
    41    36    31   ar
@<TRIPOS>MOLECULE
*****
 36 41 0 0 0
SMALL
GASTEIGER

@<TRIPOS>ATOM
      1 C         142.1914  137.3047  156.4507 C.ar    1  UNL1        0.0533
      2 C         143.2281  138.1771  155.8072 C.ar    1  UNL1        0.0042
      3 C         143.7187  139.4054  156.5146 C.ar    1  UNL1       -0.0022
      4 C         143.1725  139.7614  157.8655 C.ar    1  UNL1        0.0019
      5 C         142.1358  138.8890  158.5090 C.ar    1  UNL1       -0.0196
      6 C         141.6453  137.6607  157.8016 C.ar    1  UNL1        0.0003
      7 C         141.7849  139.4894  159.8381 C.3     1  UNL1        0.0519
      8 C         142.6048  140.7329  160.0160 C.2     1  UNL1        0.0074
      9 C         142.8947  141.8724  160.9474 C.2     1  UNL1        0.0976
     10 N         143.9314  142.7448  160.3039 N.2     1  UNL1       -0.1526
     11 N         144.2822  142.1444  158.9748 N.2     1  UNL1       -0.1678
     12 C         143.4624  140.9010  158.7969 C.3     1  UNL1        0.1672
     13 C         143.8007  130.6764  157.3023 C.3     1  UNL1        0.0897
     14 N         143.2757  132.0263  156.9125 N.3     1  UNL1       -0.2686
     15 C         143.7663  133.2547  157.6199 C.3     1  UNL1        0.0939
     16 C         143.2413  134.6047  157.2302 C.3     1  UNL1        0.1110
     17 N         142.2258  134.7264  156.1330 N.am    1  UNL1       -0.2732
     18 C         141.7008  136.0763  155.7432 C.2     1  UNL1        0.2491
     19 O         140.6852  136.1980  154.6461 O.2     1  UNL1       -0.2699
     20 C         141.7352  133.4979  155.4256 C.3     1  UNL1        0.1110
     21 C         142.2601  132.1480  155.8153 C.3     1  UNL1        0.0939
     22 C         142.2593  142.0996  162.2870 C.ar    1  UNL1        0.0265
     23 C         142.1369  143.4177  162.9926 C.ar    1  UNL1        0.0376
     24 S         141.4368  143.1814  164.2980 S.2     1  UNL1       -0.0780
     25 C         141.1264  141.7173  164.3991 C.ar    1  UNL1        0.0711
     26 C         141.6348  141.0488  163.1563 C.ar    1  UNL1        0.0168
     27 C         140.4300  141.0406  165.5424 C.1     1  UNL1       -0.0543
     28 C         139.7336  140.3638  166.6856 C.1     1  UNL1       -0.0388
     29 C         139.0372  139.6871  167.8289 C.3     1  UNL1        0.2814
     30 O         139.4319  140.0039  169.2409 O.3     1  UNL1       -0.4612
     31 C         140.6176  140.8828  169.5090 C.ar    1  UNL1        0.1400
     32 C         140.4290  142.3584  169.7016 C.ar    1  UNL1        0.0369
     33 C         141.6146  143.2373  169.9697 C.ar    1  UNL1        0.0031
     34 C         142.9887  142.6406  170.0451 C.ar    1  UNL1        0.0002
     35 C         143.1773  141.1650  169.8525 C.ar    1  UNL1        0.0031
     36 C         141.9917  140.2861  169.5844 C.ar    1  UNL1        0.0369
@<TRIPOS>BOND
     1    13    14    1
     2    14    15    1
     3    15    16    1
     4    16    17    1
     5    17    18   am
     6    18    19    2
     7    18     1    1
     8     1     2   ar
     9     2     3   ar
    10     3     4   ar
    11     4     5   ar
    12     5     6   ar
    13     5     7    1
    14     7     8    1
    15     8     9    2
    16     9    22    1
    17    22    23   ar
    18    23    24   ar
    19    24    25   ar
    20    25    27    1
    21    27    28    3
    22    28    29    1
    23    29    30    1
    24    30    31    1
    25    31    32   ar
    26    32    33   ar
    27    33    34   ar
    28    34    35   ar
    29    35    36   ar
    30    25    26   ar
    31     9    10    1
    32    10    11    2
    33    11    12    1
    34    17    20    1
    35    20    21    1
    36    21    14    1
    37     6     1   ar
    38    12     8    1
    39    12     4    1
    40    26    22   ar
    41    36    31   ar
@<TRIPOS>MOLECULE
*****
 36 41 0 0 0
SMALL
GASTEIGER

@<TRIPOS>ATOM
      1 C         142.4290  136.7458  156.0889 C.ar    1  UNL1        0.0533
      2 C         143.5137  137.3981  155.2840 C.ar    1  UNL1        0.0042
      3 C         144.0071  138.7642  155.6586 C.ar    1  UNL1       -0.0022
      4 C         143.4159  139.4779  156.8380 C.ar    1  UNL1        0.0019
      5 C         142.3312  138.8255  157.6429 C.ar    1  UNL1       -0.0196
      6 C         141.8378  137.4595  157.2683 C.ar    1  UNL1        0.0003
      7 C         141.9424  139.7660  158.7449 C.3     1  UNL1        0.0519
      8 C         142.7867  140.9996  158.6211 C.2     1  UNL1        0.0074
      9 C         143.0682  142.3432  159.2256 C.2     1  UNL1        0.0976
     10 N         144.1529  142.9955  158.4207 N.2     1  UNL1       -0.1526
     11 N         144.5417  142.0551  157.3188 N.2     1  UNL1       -0.1678
     12 C         143.6974  140.8216  157.4426 C.3     1  UNL1        0.1672
     13 C         144.6090  130.5026  157.9654 C.3     1  UNL1        0.0897
     14 N         143.9406  131.7218  157.4027 N.3     1  UNL1       -0.2686
     15 C         144.4341  133.0879  157.7772 C.3     1  UNL1        0.0939
     16 C         143.7658  134.3072  157.2144 C.3     1  UNL1        0.1110
     17 N         142.6039  134.1604  156.2771 N.am    1  UNL1       -0.2732
     18 C         141.9356  135.3796  155.7144 C.2     1  UNL1        0.2491
     19 O         140.7737  135.2328  154.7771 O.2     1  UNL1       -0.2699
     20 C         142.1104  132.7942  155.9026 C.3     1  UNL1        0.1110
     21 C         142.7788  131.5750  156.4654 C.3     1  UNL1        0.0939
     22 C         142.3850  142.9311  160.4246 C.ar    1  UNL1        0.0265
     23 C         141.6815  144.2549  160.4775 C.ar    1  UNL1        0.0376
     24 S         141.1470  144.4405  161.8667 S.2     1  UNL1       -0.0780
     25 C         141.5201  143.2314  162.6723 C.ar    1  UNL1        0.0711
     26 C         142.2852  142.2986  161.7810 C.ar    1  UNL1        0.0168
     27 C         141.1867  142.9964  164.1158 C.1     1  UNL1       -0.0543
     28 C         140.8533  142.7614  165.5593 C.1     1  UNL1       -0.0388
     29 C         140.5199  142.5264  167.0027 C.3     1  UNL1        0.2814
     30 O         140.5041  141.1304  167.5512 O.3     1  UNL1       -0.4612
     31 C         140.2236  139.9706  166.6422 C.ar    1  UNL1        0.1400
     32 C         138.8122  139.5101  166.4277 C.ar    1  UNL1        0.0369
     33 C         138.5317  138.3503  165.5187 C.ar    1  UNL1        0.0031
     34 C         139.6625  137.6511  164.8243 C.ar    1  UNL1        0.0002
     35 C         141.0738  138.1116  165.0388 C.ar    1  UNL1        0.0031
     36 C         141.3544  139.2713  165.9477 C.ar    1  UNL1        0.0369
@<TRIPOS>BOND
     1    13    14    1
     2    14    15    1
     3    15    16    1
     4    16    17    1
     5    17    18   am
     6    18    19    2
     7    18     1    1
     8     1     2   ar
     9     2     3   ar
    10     3     4   ar
    11     4     5   ar
    12     5     6   ar
    13     5     7    1
    14     7     8    1
    15     8     9    2
    16     9    22    1
    17    22    23   ar
    18    23    24   ar
    19    24    25   ar
    20    25    27    1
    21    27    28    3
    22    28    29    1
    23    29    30    1
    24    30    31    1
    25    31    32   ar
    26    32    33   ar
    27    33    34   ar
    28    34    35   ar
    29    35    36   ar
    30    25    26   ar
    31     9    10    1
    32    10    11    2
    33    11    12    1
    34    17    20    1
    35    20    21    1
    36    21    14    1
    37     6     1   ar
    38    12     8    1
    39    12     4    1
    40    26    22   ar
    41    36    31   ar
@<TRIPOS>MOLECULE
*****
 36 41 0 0 0
SMALL
GASTEIGER

@<TRIPOS>ATOM
      1 C         139.9141  138.9587  165.0180 C.ar    1  UNL1        0.0533
      2 C         140.5689  137.6253  164.8099 C.ar    1  UNL1        0.0042
      3 C         141.3442  137.3583  163.5540 C.ar    1  UNL1       -0.0022
      4 C         141.4648  138.4248  162.5060 C.ar    1  UNL1        0.0019
      5 C         140.8101  139.7582  162.7140 C.ar    1  UNL1       -0.0196
      6 C         140.0347  140.0251  163.9700 C.ar    1  UNL1        0.0003
      7 C         141.0997  140.6091  161.5133 C.3     1  UNL1        0.0519
      8 C         141.9335  139.8017  160.5631 C.2     1  UNL1        0.0074
      9 C         142.6278  139.8286  159.2337 C.2     1  UNL1        0.0976
     10 N         143.2825  138.4952  159.0257 N.2     1  UNL1       -0.1526
     11 N         142.9929  137.6442  160.2265 N.2     1  UNL1       -0.1678
     12 C         142.1592  138.4516  161.1766 C.3     1  UNL1        0.1672
     13 C         141.9261  141.4275  171.1095 C.3     1  UNL1        0.0897
     14 N         141.2292  140.8771  169.9007 N.3     1  UNL1       -0.2686
     15 C         142.0046  140.6101  168.6447 C.3     1  UNL1        0.0939
     16 C         141.3078  140.0596  167.4358 C.3     1  UNL1        0.1110
     17 N         139.8356  139.7762  167.4829 N.am    1  UNL1       -0.2732
     18 C         139.1387  139.2257  166.2740 C.2     1  UNL1        0.2491
     19 O         137.6665  138.9423  166.3211 O.2     1  UNL1       -0.2699
     20 C         139.0602  140.0432  168.7389 C.3     1  UNL1        0.1110
     21 C         139.7570  140.5936  169.9478 C.3     1  UNL1        0.0939
     22 C         142.6614  140.9858  158.2798 C.ar    1  UNL1        0.0265
     23 C         143.8780  141.5187  157.5827 C.ar    1  UNL1        0.0376
     24 S         143.4529  142.6755  156.7277 S.2     1  UNL1       -0.0780
     25 C         141.9735  142.8575  156.8964 C.ar    1  UNL1        0.0711
     26 C         141.4844  141.8132  157.8556 C.ar    1  UNL1        0.0168
     27 C         141.1312  143.9006  156.2239 C.1     1  UNL1       -0.0543
     28 C         140.2888  144.9438  155.5513 C.1     1  UNL1       -0.0388
     29 C         139.4464  145.9869  154.8788 C.3     1  UNL1        0.2814
     30 O         140.0983  147.1616  154.2116 O.3     1  UNL1       -0.4612
     31 C         139.7442  148.5564  154.6350 C.ar    1  UNL1        0.1400
     32 C         140.4648  149.7277  154.0362 C.ar    1  UNL1        0.0369
     33 C         140.1108  151.1225  154.4596 C.ar    1  UNL1        0.0031
     34 C         139.0360  151.3458  155.4818 C.ar    1  UNL1        0.0002
     35 C         138.3153  150.1745  156.0806 C.ar    1  UNL1        0.0031
     36 C         138.6694  148.7798  155.6572 C.ar    1  UNL1        0.0369
@<TRIPOS>BOND
     1    13    14    1
     2    14    15    1
     3    15    16    1
     4    16    17    1
     5    17    18   am
     6    18    19    2
     7    18     1    1
     8     1     2   ar
     9     2     3   ar
    10     3     4   ar
    11     4     5   ar
    12     5     6   ar
    13     5     7    1
    14     7     8    1
    15     8     9    2
    16     9    22    1
    17    22    23   ar
    18    23    24   ar
    19    24    25   ar
    20    25    27    1
    21    27    28    3
    22    28    29    1
    23    29    30    1
    24    30    31    1
    25    31    32   ar
    26    32    33   ar
    27    33    34   ar
    28    34    35   ar
    29    35    36   ar
    30    25    26   ar
    31     9    10    1
    32    10    11    2
    33    11    12    1
    34    17    20    1
    35    20    21    1
    36    21    14    1
    37     6     1   ar
    38    12     8    1
    39    12     4    1
    40    26    22   ar
    41    36    31   ar
@<TRIPOS>MOLECULE
*****
 36 41 0 0 0
SMALL
GASTEIGER

@<TRIPOS>ATOM
      1 C         139.9653  145.9586  155.1980 C.ar    1  UNL1        0.0533
      2 C         138.8380  145.0326  154.8491 C.ar    1  UNL1        0.0042
      3 C         138.4387  143.9450  155.8017 C.ar    1  UNL1       -0.0022
      4 C         139.1667  143.7834  157.1032 C.ar    1  UNL1        0.0019
      5 C         140.2940  144.7093  157.4521 C.ar    1  UNL1       -0.0196
      6 C         140.6933  145.7970  156.4995 C.ar    1  UNL1        0.0003
      7 C         140.8227  144.3095  158.7977 C.3     1  UNL1        0.0519
      8 C         140.0222  143.1364  159.2804 C.2     1  UNL1        0.0074
      9 C         139.8543  142.1642  160.4103 C.2     1  UNL1        0.0976
     10 N         138.7270  141.2383  160.0615 N.2     1  UNL1       -0.1526
     11 N         138.1983  141.6381  158.7159 N.2     1  UNL1       -0.1678
     12 C         138.9987  142.8112  158.2332 C.3     1  UNL1        0.1672
     13 C         138.3562  152.6402  155.0662 C.3     1  UNL1        0.0897
     14 N         138.8583  151.2417  154.8609 N.3     1  UNL1       -0.2686
     15 C         138.4589  150.1541  155.8136 C.3     1  UNL1        0.0939
     16 C         138.9610  148.7556  155.6084 C.3     1  UNL1        0.1110
     17 N         139.8626  148.4447  154.4505 N.am    1  UNL1       -0.2732
     18 C         140.3647  147.0463  154.2453 C.2     1  UNL1        0.2491
     19 O         141.2662  146.7355  153.0874 O.2     1  UNL1       -0.2699
     20 C         140.2619  149.5324  153.4979 C.3     1  UNL1        0.1110
     21 C         139.7598  150.9309  153.7031 C.3     1  UNL1        0.0939
     22 C         140.6704  142.1250  161.6683 C.ar    1  UNL1        0.0265
     23 C         141.3914  143.2853  162.2881 C.ar    1  UNL1        0.0376
     24 S         142.0754  142.7960  163.5301 S.2     1  UNL1       -0.0780
     25 C         141.7772  141.3333  163.6780 C.ar    1  UNL1        0.0711
     26 C         140.9089  140.9187  162.5273 C.ar    1  UNL1        0.0168
     27 C         142.2621  140.4419  164.7826 C.1     1  UNL1       -0.0543
     28 C         142.7471  139.5504  165.8872 C.1     1  UNL1       -0.0388
     29 C         143.2320  138.6590  166.9918 C.3     1  UNL1        0.2814
     30 O         143.0912  139.0915  168.4212 O.3     1  UNL1       -0.4612
     31 C         142.3453  140.3497  168.7540 C.ar    1  UNL1        0.1400
     32 C         143.0933  141.5649  169.2164 C.ar    1  UNL1        0.0369
     33 C         142.3475  142.8230  169.5493 C.ar    1  UNL1        0.0031
     34 C         140.8537  142.8659  169.4198 C.ar    1  UNL1        0.0002
     35 C         140.1058  141.6507  168.9574 C.ar    1  UNL1        0.0031
     36 C         140.8516  140.3926  168.6245 C.ar    1  UNL1        0.0369
@<TRIPOS>BOND
     1    13    14    1
     2    14    15    1
     3    15    16    1
     4    16    17    1
     5    17    18   am
     6    18    19    2
     7    18     1    1
     8     1     2   ar
     9     2     3   ar
    10     3     4   ar
    11     4     5   ar
    12     5     6   ar
    13     5     7    1
    14     7     8    1
    15     8     9    2
    16     9    22    1
    17    22    23   ar
    18    23    24   ar
    19    24    25   ar
    20    25    27    1
    21    27    28    3
    22    28    29    1
    23    29    30    1
    24    30    31    1
    25    31    32   ar
    26    32    33   ar
    27    33    34   ar
    28    34    35   ar
    29    35    36   ar
    30    25    26   ar
    31     9    10    1
    32    10    11    2
    33    11    12    1
    34    17    20    1
    35    20    21    1
    36    21    14    1
    37     6     1   ar
    38    12     8    1
    39    12     4    1
    40    26    22   ar
    41    36    31   ar
@<TRIPOS>MOLECULE
*****
 36 41 0 0 0
SMALL
GASTEIGER

@<TRIPOS>ATOM
      1 C         150.2331  141.3553  153.7298 C.ar    1  UNL1        0.0533
      2 C         149.4344  141.3568  152.4601 C.ar    1  UNL1        0.0042
      3 C         147.9568  141.6108  152.5038 C.ar    1  UNL1       -0.0022
      4 C         147.2777  141.8633  153.8173 C.ar    1  UNL1        0.0019
      5 C         148.0763  141.8617  155.0870 C.ar    1  UNL1       -0.0196
      6 C         149.5540  141.6077  155.0432 C.ar    1  UNL1        0.0003
      7 C         147.1389  142.1393  156.2245 C.3     1  UNL1        0.0519
      8 C         145.7608  142.3125  155.6579 C.2     1  UNL1        0.0074
      9 C         144.3298  142.5910  156.0107 C.2     1  UNL1        0.0976
     10 N         143.5312  142.5926  154.7411 N.2     1  UNL1       -0.1526
     11 N         144.4687  142.3150  153.6035 N.2     1  UNL1       -0.1678
     12 C         145.8466  142.1419  154.1701 C.3     1  UNL1        0.1672
     13 C         155.5563  145.6913  154.0639 C.3     1  UNL1        0.0897
     14 N         154.5950  144.5438  153.9695 N.3     1  UNL1       -0.2686
     15 C         153.1173  144.7979  154.0132 C.3     1  UNL1        0.0939
     16 C         152.1559  143.6503  153.9187 C.3     1  UNL1        0.1110
     17 N         152.6722  142.2488  153.7805 N.am    1  UNL1       -0.2732
     18 C         151.7108  141.1013  153.6860 C.2     1  UNL1        0.2491
     19 O         152.2271  139.6997  153.5479 O.2     1  UNL1       -0.2699
     20 C         154.1499  141.9948  153.7368 C.3     1  UNL1        0.1110
     21 C         155.1113  143.1423  153.8313 C.3     1  UNL1        0.0939
     22 C         143.7918  142.8267  157.3910 C.ar    1  UNL1        0.0265
     23 C         144.1931  142.0857  158.6321 C.ar    1  UNL1        0.0376
     24 S         143.4074  142.6458  159.7806 S.2     1  UNL1       -0.0780
     25 C         142.5207  143.7328  159.2494 C.ar    1  UNL1        0.0711
     26 C         142.7583  143.8445  157.7726 C.ar    1  UNL1        0.0168
     27 C         141.5642  144.5623  160.0538 C.1     1  UNL1       -0.0543
     28 C         140.6078  145.3919  160.8582 C.1     1  UNL1       -0.0388
     29 C         139.6513  146.2214  161.6626 C.3     1  UNL1        0.2814
     30 O         138.4001  145.6026  162.2116 O.3     1  UNL1       -0.4612
     31 C         138.4899  144.4385  163.1534 C.ar    1  UNL1        0.1400
     32 C         139.3352  144.5367  164.3886 C.ar    1  UNL1        0.0369
     33 C         139.4250  143.3727  165.3304 C.ar    1  UNL1        0.0031
     34 C         138.6696  142.1106  165.0369 C.ar    1  UNL1        0.0002
     35 C         137.8243  142.0124  163.8017 C.ar    1  UNL1        0.0031
     36 C         137.7345  143.1763  162.8599 C.ar    1  UNL1        0.0369
@<TRIPOS>BOND
     1    13    14    1
     2    14    15    1
     3    15    16    1
     4    16    17    1
     5    17    18   am
     6    18    19    2
     7    18     1    1
     8     1     2   ar
     9     2     3   ar
    10     3     4   ar
    11     4     5   ar
    12     5     6   ar
    13     5     7    1
    14     7     8    1
    15     8     9    2
    16     9    22    1
    17    22    23   ar
    18    23    24   ar
    19    24    25   ar
    20    25    27    1
    21    27    28    3
    22    28    29    1
    23    29    30    1
    24    30    31    1
    25    31    32   ar
    26    32    33   ar
    27    33    34   ar
    28    34    35   ar
    29    35    36   ar
    30    25    26   ar
    31     9    10    1
    32    10    11    2
    33    11    12    1
    34    17    20    1
    35    20    21    1
    36    21    14    1
    37     6     1   ar
    38    12     8    1
    39    12     4    1
    40    26    22   ar
    41    36    31   ar
@<TRIPOS>MOLECULE
*****
 36 41 0 0 0
SMALL
GASTEIGER

@<TRIPOS>ATOM
      1 C         141.4210  140.1081  158.1187 C.ar    1  UNL1        0.0533
      2 C         139.9592  140.2734  157.8258 C.ar    1  UNL1        0.0042
      3 C         139.0005  140.5740  158.9395 C.ar    1  UNL1       -0.0022
      4 C         139.5035  140.7093  160.3462 C.ar    1  UNL1        0.0019
      5 C         140.9653  140.5440  160.6391 C.ar    1  UNL1       -0.0196
      6 C         141.9240  140.2433  159.5254 C.ar    1  UNL1        0.0003
      7 C         141.1667  140.7322  162.1135 C.3     1  UNL1        0.0519
      8 C         139.8294  141.0139  162.7319 C.2     1  UNL1        0.0074
      9 C         139.1275  141.3044  164.0253 C.2     1  UNL1        0.0976
     10 N         137.6657  141.4697  163.7324 N.2     1  UNL1       -0.1526
     11 N         137.4643  141.2814  162.2579 N.2     1  UNL1       -0.1678
     12 C         138.8015  140.9997  161.6396 C.3     1  UNL1        0.1672
     13 C         144.0074  134.1400  155.8954 C.3     1  UNL1        0.0897
     14 N         143.6005  135.5569  156.1728 N.3     1  UNL1       -0.2686
     15 C         142.6417  135.8574  157.2865 C.3     1  UNL1        0.0939
     16 C         142.2348  137.2743  157.5639 C.3     1  UNL1        0.1110
     17 N         142.7867  138.3906  156.7276 N.am    1  UNL1       -0.2732
     18 C         142.3798  139.8074  157.0050 C.2     1  UNL1        0.2491
     19 O         142.9317  140.9237  156.1687 O.2     1  UNL1       -0.2699
     20 C         143.7455  138.0900  155.6138 C.3     1  UNL1        0.1110
     21 C         144.1524  136.6731  155.3364 C.3     1  UNL1        0.0939
     22 C         139.7739  141.4108  165.3747 C.ar    1  UNL1        0.0265
     23 C         139.9039  142.6606  166.1939 C.ar    1  UNL1        0.0376
     24 S         140.6141  142.3084  167.4673 S.2     1  UNL1       -0.0780
     25 C         140.9230  140.8408  167.4351 C.ar    1  UNL1        0.0711
     26 C         140.4037  140.2862  166.1418 C.ar    1  UNL1        0.0168
     27 C         141.6275  140.0644  168.5078 C.1     1  UNL1       -0.0543
     28 C         142.3320  139.2879  169.5806 C.1     1  UNL1       -0.0388
     29 C         143.0365  138.5114  170.6533 C.3     1  UNL1        0.2814
     30 O         143.6977  137.2062  170.3230 O.3     1  UNL1       -0.4612
     31 C         144.5892  136.5412  171.3296 C.ar    1  UNL1        0.1400
     32 C         145.5391  137.3635  172.1492 C.ar    1  UNL1        0.0369
     33 C         146.4306  136.6986  173.1557 C.ar    1  UNL1        0.0031
     34 C         146.3722  135.2114  173.3426 C.ar    1  UNL1        0.0002
     35 C         145.4224  134.3892  172.5230 C.ar    1  UNL1        0.0031
     36 C         144.5309  135.0541  171.5165 C.ar    1  UNL1        0.0369
@<TRIPOS>BOND
     1    13    14    1
     2    14    15    1
     3    15    16    1
     4    16    17    1
     5    17    18   am
     6    18    19    2
     7    18     1    1
     8     1     2   ar
     9     2     3   ar
    10     3     4   ar
    11     4     5   ar
    12     5     6   ar
    13     5     7    1
    14     7     8    1
    15     8     9    2
    16     9    22    1
    17    22    23   ar
    18    23    24   ar
    19    24    25   ar
    20    25    27    1
    21    27    28    3
    22    28    29    1
    23    29    30    1
    24    30    31    1
    25    31    32   ar
    26    32    33   ar
    27    33    34   ar
    28    34    35   ar
    29    35    36   ar
    30    25    26   ar
    31     9    10    1
    32    10    11    2
    33    11    12    1
    34    17    20    1
    35    20    21    1
    36    21    14    1
    37     6     1   ar
    38    12     8    1
    39    12     4    1
    40    26    22   ar
    41    36    31   ar
@<TRIPOS>MOLECULE
*****
 36 41 0 0 0
SMALL
GASTEIGER

@<TRIPOS>ATOM
      1 C         142.1808  134.3670  155.0614 C.ar    1  UNL1        0.0533
      2 C         143.6190  134.7881  154.9965 C.ar    1  UNL1        0.0042
      3 C         144.0340  136.1253  155.5346 C.ar    1  UNL1       -0.0022
      4 C         143.0108  137.0414  156.1377 C.ar    1  UNL1        0.0019
      5 C         141.5726  136.6204  156.2027 C.ar    1  UNL1       -0.0196
      6 C         141.1576  135.2832  155.6645 C.ar    1  UNL1        0.0003
      7 C         140.7943  137.7276  156.8494 C.3     1  UNL1        0.0519
      8 C         141.7514  138.8330  157.1841 C.2     1  UNL1        0.0074
      9 C         141.8619  140.2004  157.7907 C.2     1  UNL1        0.0976
     10 N         143.3001  140.6214  157.7257 N.2     1  UNL1       -0.1526
     11 N         144.0784  139.5142  157.0790 N.2     1  UNL1       -0.1678
     12 C         143.1214  138.4089  156.7443 C.3     1  UNL1        0.1672
     13 C         143.2038  128.0213  157.4975 C.3     1  UNL1        0.0897
     14 N         142.8443  129.2734  156.7540 N.3     1  UNL1       -0.2686
     15 C         143.2594  130.6105  157.2921 C.3     1  UNL1        0.0939
     16 C         142.8998  131.8627  156.5486 C.3     1  UNL1        0.1110
     17 N         142.1253  131.7777  155.2669 N.am    1  UNL1       -0.2732
     18 C         141.7657  133.0298  154.5233 C.2     1  UNL1        0.2491
     19 O         140.9912  132.9447  153.2416 O.2     1  UNL1       -0.2699
     20 C         141.7102  130.4404  154.7287 C.3     1  UNL1        0.1110
     21 C         142.0697  129.1883  155.4723 C.3     1  UNL1        0.0939
     22 C         140.7325  141.0054  158.3620 C.ar    1  UNL1        0.0265
     23 C         139.5099  141.4591  157.6206 C.ar    1  UNL1        0.0376
     24 S         138.6492  142.2321  158.5753 S.2     1  UNL1       -0.0780
     25 C         139.3397  142.2562  159.9067 C.ar    1  UNL1        0.0711
     26 C         140.6273  141.4981  159.7748 C.ar    1  UNL1        0.0168
     27 C         138.8319  142.9217  161.1514 C.1     1  UNL1       -0.0543
     28 C         138.3241  143.5871  162.3962 C.1     1  UNL1       -0.0388
     29 C         137.8163  144.2525  163.6409 C.3     1  UNL1        0.2814
     30 O         138.7846  144.8054  164.6441 O.3     1  UNL1       -0.4612
     31 C         140.2455  144.4837  164.5328 C.ar    1  UNL1        0.1400
     32 C         140.8040  143.2805  165.2332 C.ar    1  UNL1        0.0369
     33 C         142.2648  142.9587  165.1219 C.ar    1  UNL1        0.0031
     34 C         143.1671  143.8401  164.3102 C.ar    1  UNL1        0.0002
     35 C         142.6087  145.0432  163.6098 C.ar    1  UNL1        0.0031
     36 C         141.1479  145.3650  163.7211 C.ar    1  UNL1        0.0369
@<TRIPOS>BOND
     1    13    14    1
     2    14    15    1
     3    15    16    1
     4    16    17    1
     5    17    18   am
     6    18    19    2
     7    18     1    1
     8     1     2   ar
     9     2     3   ar
    10     3     4   ar
    11     4     5   ar
    12     5     6   ar
    13     5     7    1
    14     7     8    1
    15     8     9    2
    16     9    22    1
    17    22    23   ar
    18    23    24   ar
    19    24    25   ar
    20    25    27    1
    21    27    28    3
    22    28    29    1
    23    29    30    1
    24    30    31    1
    25    31    32   ar
    26    32    33   ar
    27    33    34   ar
    28    34    35   ar
    29    35    36   ar
    30    25    26   ar
    31     9    10    1
    32    10    11    2
    33    11    12    1
    34    17    20    1
    35    20    21    1
    36    21    14    1
    37     6     1   ar
    38    12     8    1
    39    12     4    1
    40    26    22   ar
    41    36    31   ar
