@<TRIPOS>MOLECULE
*****
 30 32 0 0 0
SMALL
GASTEIGER

@<TRIPOS>ATOM
      1 N         141.2738  141.2837  166.6512 N.3     1  UNL1       -0.2715
      2 C         141.1692  142.0355  165.3574 C.3     1  UNL1        0.0610
      3 C         141.6884  141.4234  164.0902 C.3     1  UNL1        0.0375
      4 C         141.5838  142.1752  162.7965 C.3     1  UNL1        0.0950
      5 N         140.9600  143.5391  162.7698 N.pl3   1  UNL1       -0.2785
      6 C         140.4408  144.1512  164.0371 C.3     1  UNL1        0.0950
      7 C         140.5454  143.3994  165.3308 C.3     1  UNL1        0.0375
      8 C         140.8554  144.2909  161.4761 C.ar    1  UNL1        0.2163
      9 N         141.9819  144.5724  160.5263 N.ar    1  UNL1       -0.1804
     10 C         141.4287  145.3487  159.3682 C.ar    1  UNL1        0.2331
     11 N         142.2071  145.8403  158.1840 N.pl3   1  UNL1       -0.3262
     12 N         139.9603  145.5469  159.6021 N.ar    1  UNL1       -0.1354
     13 N         139.6061  144.8932  160.9048 N.ar    1  UNL1       -0.2450
     14 H         143.1727  145.6593  158.1201 H       1  UNL1        0.1452
     15 H         141.7525  146.3440  157.4707 H       1  UNL1        0.1452
     16 H         138.7108  144.8645  161.3132 H       1  UNL1        0.1919
     17 C         142.6142  140.8309  167.1492 C.3     1  UNL1        0.1019
     18 C         142.9147  139.3660  167.2672 C.3     1  UNL1        0.1313
     19 C         143.0049  138.5171  166.0338 C.3     1  UNL1        0.0335
     20 C         142.3643  139.2652  169.8044 C.3     1  UNL1        0.1741
     21 O         143.1251  138.7501  168.6186 O.3     1  UNL1       -0.3522
     22 C         140.0378  140.9847  167.4469 C.3     1  UNL1        0.0768
     23 C         139.2144  139.7726  167.1264 C.3     1  UNL1        0.0437
     24 C         138.9215  139.4212  165.6978 C.ar    1  UNL1       -0.0207
     25 C         139.3760  138.1047  165.1410 C.ar    1  UNL1       -0.0034
     26 C         139.0831  137.7533  163.7124 C.ar    1  UNL1        0.0111
     27 C         138.3356  138.7185  162.8408 C.ar    1  UNL1        0.0577
     28 CL        138.0426  138.3670  161.4122 Cl      1  UNL1       -0.0822
     29 C         137.8810  140.0350  163.3977 C.ar    1  UNL1        0.0111
     30 C         138.1740  140.3863  164.8262 C.ar    1  UNL1       -0.0034
@<TRIPOS>BOND
     1    20    21    1
     2    21    18    1
     3    18    19    1
     4    18    17    1
     5    17     1    1
     6     1    22    1
     7    22    23    1
     8    23    24    1
     9    24    25   ar
    10    25    26   ar
    11    26    27   ar
    12    27    28    1
    13    27    29   ar
    14    29    30   ar
    15     1     2    1
    16     2     3    1
    17     3     4    1
    18     4     5    1
    19     5     8    1
    20     8     9   ar
    21     9    10   ar
    22    10    11    1
    23    10    12   ar
    24    12    13   ar
    25     5     6    1
    26     6     7    1
    27    30    24   ar
    28     7     2    1
    29    13     8   ar
    30    11    14    1
    31    11    15    1
    32    13    16    1
@<TRIPOS>MOLECULE
*****
 30 32 0 0 0
SMALL
GASTEIGER

@<TRIPOS>ATOM
      1 N         138.2245  139.8204  163.3227 N.3     1  UNL1       -0.2715
      2 C         138.6894  140.0413  164.7316 C.3     1  UNL1        0.0610
      3 C         138.1620  139.1785  165.8395 C.3     1  UNL1        0.0375
      4 C         138.6269  139.3995  167.2484 C.3     1  UNL1        0.0950
      5 N         139.6193  140.4832  167.5494 N.pl3   1  UNL1       -0.2785
      6 C         140.1468  141.3460  166.4416 C.3     1  UNL1        0.0950
      7 C         139.6819  141.1251  165.0327 C.3     1  UNL1        0.0375
      8 C         140.0842  140.7041  168.9583 C.ar    1  UNL1        0.2163
      9 N         141.1413  141.6742  169.3961 N.ar    1  UNL1       -0.1804
     10 C         141.2841  141.5634  170.8852 C.ar    1  UNL1        0.2331
     11 N         142.2297  142.3526  171.7414 N.pl3   1  UNL1       -0.3262
     12 N         140.3153  140.5249  171.3678 N.ar    1  UNL1       -0.1354
     13 N         139.5737  139.9938  170.1769 N.ar    1  UNL1       -0.2450
     14 H         142.8301  143.0153  171.3297 H       1  UNL1        0.1452
     15 H         142.2498  142.2078  172.7149 H       1  UNL1        0.1452
     16 H         138.8747  139.3008  170.1924 H       1  UNL1        0.1919
     17 C         137.4643  140.8968  162.6063 C.3     1  UNL1        0.1019
     18 C         138.2034  141.9556  161.8429 C.3     1  UNL1        0.1313
     19 C         139.3993  141.5871  161.0158 C.3     1  UNL1        0.0335
     20 C         138.4844  144.3691  162.7628 C.3     1  UNL1        0.1741
     21 O         137.7465  143.3829  161.9066 O.3     1  UNL1       -0.3522
     22 C         138.5197  138.5229  162.6303 C.3     1  UNL1        0.0768
     23 C         139.5598  137.5959  163.1860 C.3     1  UNL1        0.0437
     24 C         140.9424  138.1038  163.4701 C.ar    1  UNL1       -0.0207
     25 C         141.5565  137.8910  164.8219 C.ar    1  UNL1       -0.0034
     26 C         142.9390  138.3990  165.1059 C.ar    1  UNL1        0.0111
     27 C         143.7073  139.1197  164.0381 C.ar    1  UNL1        0.0577
     28 CL        145.0899  139.6276  164.3222 Cl      1  UNL1       -0.0822
     29 C         143.0932  139.3325  162.6863 C.ar    1  UNL1        0.0111
     30 C         141.7107  138.8246  162.4023 C.ar    1  UNL1       -0.0034
@<TRIPOS>BOND
     1    20    21    1
     2    21    18    1
     3    18    19    1
     4    18    17    1
     5    17     1    1
     6     1    22    1
     7    22    23    1
     8    23    24    1
     9    24    25   ar
    10    25    26   ar
    11    26    27   ar
    12    27    28    1
    13    27    29   ar
    14    29    30   ar
    15     1     2    1
    16     2     3    1
    17     3     4    1
    18     4     5    1
    19     5     8    1
    20     8     9   ar
    21     9    10   ar
    22    10    11    1
    23    10    12   ar
    24    12    13   ar
    25     5     6    1
    26     6     7    1
    27    30    24   ar
    28     7     2    1
    29    13     8   ar
    30    11    14    1
    31    11    15    1
    32    13    16    1
@<TRIPOS>MOLECULE
*****
 30 32 0 0 0
SMALL
GASTEIGER

@<TRIPOS>ATOM
      1 N         138.5373  139.5225  164.2461 N.3     1  UNL1       -0.2715
      2 C         139.1646  140.0827  165.4881 C.3     1  UNL1        0.0610
      3 C         140.0645  141.2795  165.3996 C.3     1  UNL1        0.0375
      4 C         140.6918  141.8398  166.6416 C.3     1  UNL1        0.0950
      5 N         140.4192  141.2032  167.9722 N.pl3   1  UNL1       -0.2785
      6 C         139.5193  140.0064  168.0608 C.3     1  UNL1        0.0950
      7 C         138.8920  139.4461  166.8187 C.3     1  UNL1        0.0375
      8 C         141.0465  141.7635  169.2142 C.ar    1  UNL1        0.2163
      9 N         142.1652  142.7616  169.2638 N.ar    1  UNL1       -0.1804
     10 C         142.4753  143.0389  170.7050 C.ar    1  UNL1        0.2331
     11 N         143.5276  143.9781  171.2154 N.pl3   1  UNL1       -0.3262
     12 N         141.5484  142.2122  171.5461 N.ar    1  UNL1       -0.1354
     13 N         140.6653  141.4240  170.6247 N.ar    1  UNL1       -0.2450
     14 H         144.0896  144.4793  170.5812 H       1  UNL1        0.1452
     15 H         143.6563  144.0934  172.1847 H       1  UNL1        0.1452
     16 H         139.9595  140.7943  170.8978 H       1  UNL1        0.1919
     17 C         137.7786  140.4233  163.3172 C.3     1  UNL1        0.1019
     18 C         138.2598  140.6277  161.9113 C.3     1  UNL1        0.1313
     19 C         139.4267  141.5309  161.6418 C.3     1  UNL1        0.0335
     20 C         137.9581  140.2441  159.3595 C.3     1  UNL1        0.1741
     21 O         137.5741  139.9289  160.7748 O.3     1  UNL1       -0.3522
     22 C         138.6688  138.0614  163.9330 C.3     1  UNL1        0.0768
     23 C         139.8833  137.5551  163.2128 C.3     1  UNL1        0.0437
     24 C         141.2279  138.1574  163.4945 C.ar    1  UNL1       -0.0207
     25 C         141.9227  138.9672  162.4403 C.ar    1  UNL1       -0.0034
     26 C         143.2672  139.5695  162.7221 C.ar    1  UNL1        0.0111
     27 C         143.9169  139.3620  164.0581 C.ar    1  UNL1        0.0577
     28 CL        145.2615  139.9643  164.3398 Cl      1  UNL1       -0.0822
     29 C         143.2221  138.5522  165.1123 C.ar    1  UNL1        0.0111
     30 C         141.8775  137.9499  164.8305 C.ar    1  UNL1       -0.0034
@<TRIPOS>BOND
     1    20    21    1
     2    21    18    1
     3    18    19    1
     4    18    17    1
     5    17     1    1
     6     1    22    1
     7    22    23    1
     8    23    24    1
     9    24    25   ar
    10    25    26   ar
    11    26    27   ar
    12    27    28    1
    13    27    29   ar
    14    29    30   ar
    15     1     2    1
    16     2     3    1
    17     3     4    1
    18     4     5    1
    19     5     8    1
    20     8     9   ar
    21     9    10   ar
    22    10    11    1
    23    10    12   ar
    24    12    13   ar
    25     5     6    1
    26     6     7    1
    27    30    24   ar
    28     7     2    1
    29    13     8   ar
    30    11    14    1
    31    11    15    1
    32    13    16    1
@<TRIPOS>MOLECULE
*****
 30 32 0 0 0
SMALL
GASTEIGER

@<TRIPOS>ATOM
      1 N         139.1855  140.0345  166.5440 N.3     1  UNL1       -0.2715
      2 C         139.3206  141.0633  165.4608 C.3     1  UNL1        0.0610
      3 C         138.1096  141.5132  164.6985 C.3     1  UNL1        0.0375
      4 C         138.2447  142.5420  163.6153 C.3     1  UNL1        0.0950
      5 N         139.5908  143.1208  163.2944 N.pl3   1  UNL1       -0.2785
      6 C         140.8018  142.6709  164.0566 C.3     1  UNL1        0.0950
      7 C         140.6667  141.6421  165.1398 C.3     1  UNL1        0.0375
      8 C         139.7259  144.1496  162.2111 C.ar    1  UNL1        0.2163
      9 N         140.6252  144.0567  161.0141 N.ar    1  UNL1       -0.1804
     10 C         140.4405  145.3016  160.1979 C.ar    1  UNL1        0.2331
     11 N         141.1454  145.6271  158.9145 N.pl3   1  UNL1       -0.3262
     12 N         139.4271  146.1639  160.8905 N.ar    1  UNL1       -0.1354
     13 N         138.9855  145.4519  162.1347 N.ar    1  UNL1       -0.2450
     14 H         141.7976  144.9936  158.5368 H       1  UNL1        0.1452
     15 H         140.9559  146.4741  158.4499 H       1  UNL1        0.1452
     16 H         138.3255  145.7815  162.7866 H       1  UNL1        0.1919
     17 C         140.0980  140.0739  167.7338 C.3     1  UNL1        0.1019
     18 C         139.7968  140.9937  168.8798 C.3     1  UNL1        0.1313
     19 C         138.9768  140.5062  170.0374 C.3     1  UNL1        0.0335
     20 C         141.5660  142.7457  169.6218 C.3     1  UNL1        0.1741
     21 O         140.3156  142.4011  168.8682 O.3     1  UNL1       -0.3522
     22 C         138.1378  138.9663  166.4374 C.3     1  UNL1        0.0768
     23 C         138.4313  137.7000  165.6889 C.3     1  UNL1        0.0437
     24 C         139.3553  137.7240  164.5075 C.ar    1  UNL1       -0.0207
     25 C         140.8288  137.5232  164.7036 C.ar    1  UNL1       -0.0034
     26 C         141.7528  137.5472  163.5223 C.ar    1  UNL1        0.0111
     27 C         141.2033  137.7722  162.1448 C.ar    1  UNL1        0.0577
     28 CL        142.1273  137.7962  160.9634 Cl      1  UNL1       -0.0822
     29 C         139.7298  137.9730  161.9486 C.ar    1  UNL1        0.0111
     30 C         138.8058  137.9489  163.1300 C.ar    1  UNL1       -0.0034
@<TRIPOS>BOND
     1    20    21    1
     2    21    18    1
     3    18    19    1
     4    18    17    1
     5    17     1    1
     6     1    22    1
     7    22    23    1
     8    23    24    1
     9    24    25   ar
    10    25    26   ar
    11    26    27   ar
    12    27    28    1
    13    27    29   ar
    14    29    30   ar
    15     1     2    1
    16     2     3    1
    17     3     4    1
    18     4     5    1
    19     5     8    1
    20     8     9   ar
    21     9    10   ar
    22    10    11    1
    23    10    12   ar
    24    12    13   ar
    25     5     6    1
    26     6     7    1
    27    30    24   ar
    28     7     2    1
    29    13     8   ar
    30    11    14    1
    31    11    15    1
    32    13    16    1
@<TRIPOS>MOLECULE
*****
 30 32 0 0 0
SMALL
GASTEIGER

@<TRIPOS>ATOM
      1 N         142.9527  140.1686  162.7390 N.3     1  UNL1       -0.2715
      2 C         142.6347  140.7001  164.1052 C.3     1  UNL1        0.0610
      3 C         142.9789  139.8940  165.3224 C.3     1  UNL1        0.0375
      4 C         142.6610  140.4256  166.6885 C.3     1  UNL1        0.0950
      5 N         141.9988  141.7632  166.8374 N.pl3   1  UNL1       -0.2785
      6 C         141.6545  142.5694  165.6202 C.3     1  UNL1        0.0950
      7 C         141.9725  142.0378  164.2540 C.3     1  UNL1        0.0375
      8 C         141.6808  142.2947  168.2036 C.ar    1  UNL1        0.2163
      9 N         140.3110  142.4320  168.7995 N.ar    1  UNL1       -0.1804
     10 C         140.4605  143.0044  170.1779 C.ar    1  UNL1        0.2331
     11 N         139.3438  143.3072  171.1326 N.pl3   1  UNL1       -0.3262
     12 N         141.9225  143.2209  170.4339 N.ar    1  UNL1       -0.1354
     13 N         142.6767  142.7823  169.2138 N.ar    1  UNL1       -0.2450
     14 H         138.4113  143.1294  170.8717 H       1  UNL1        0.1452
     15 H         139.5435  143.6837  172.0201 H       1  UNL1        0.1452
     16 H         143.6538  142.8097  169.0965 H       1  UNL1        0.1919
     17 C         144.1456  140.6865  161.9917 C.3     1  UNL1        0.1019
     18 C         144.8895  141.8841  162.5038 C.3     1  UNL1        0.1313
     19 C         145.9009  141.7264  163.6003 C.3     1  UNL1        0.0335
     20 C         144.2481  144.3823  162.8164 C.3     1  UNL1        0.1741
     21 O         144.6219  143.2395  161.9195 O.3     1  UNL1       -0.3522
     22 C         142.0776  139.1191  162.1202 C.3     1  UNL1        0.0768
     23 C         140.5874  139.2897  162.1201 C.3     1  UNL1        0.0437
     24 C         139.8089  139.0842  163.3858 C.ar    1  UNL1       -0.0207
     25 C         139.0337  140.2212  163.9825 C.ar    1  UNL1       -0.0034
     26 C         138.2552  140.0157  165.2481 C.ar    1  UNL1        0.0111
     27 C         138.2520  138.6730  165.9169 C.ar    1  UNL1        0.0577
     28 CL        137.4735  138.4675  167.1826 Cl      1  UNL1       -0.0822
     29 C         139.0272  137.5360  165.3202 C.ar    1  UNL1        0.0111
     30 C         139.8056  137.7415  164.0546 C.ar    1  UNL1       -0.0034
@<TRIPOS>BOND
     1    20    21    1
     2    21    18    1
     3    18    19    1
     4    18    17    1
     5    17     1    1
     6     1    22    1
     7    22    23    1
     8    23    24    1
     9    24    25   ar
    10    25    26   ar
    11    26    27   ar
    12    27    28    1
    13    27    29   ar
    14    29    30   ar
    15     1     2    1
    16     2     3    1
    17     3     4    1
    18     4     5    1
    19     5     8    1
    20     8     9   ar
    21     9    10   ar
    22    10    11    1
    23    10    12   ar
    24    12    13   ar
    25     5     6    1
    26     6     7    1
    27    30    24   ar
    28     7     2    1
    29    13     8   ar
    30    11    14    1
    31    11    15    1
    32    13    16    1
@<TRIPOS>MOLECULE
*****
 30 32 0 0 0
SMALL
GASTEIGER

@<TRIPOS>ATOM
      1 N         141.9728  138.3003  163.6034 N.3     1  UNL1       -0.2715
      2 C         142.0387  139.0613  164.8943 C.3     1  UNL1        0.0610
      3 C         141.3193  140.3704  165.0308 C.3     1  UNL1        0.0375
      4 C         141.3851  141.1314  166.3217 C.3     1  UNL1        0.0950
      5 N         142.1703  140.5833  167.4762 N.pl3   1  UNL1       -0.2785
      6 C         142.8898  139.2741  167.3398 C.3     1  UNL1        0.0950
      7 C         142.8240  138.5131  166.0489 C.3     1  UNL1        0.0375
      8 C         142.2362  141.3443  168.7672 C.ar    1  UNL1        0.2163
      9 N         143.1461  142.4993  169.0644 N.ar    1  UNL1       -0.1804
     10 C         142.8759  142.9527  170.4685 C.ar    1  UNL1        0.2331
     11 N         143.5621  144.0824  171.1776 N.pl3   1  UNL1       -0.3262
     12 N         141.7991  142.0780  171.0390 N.ar    1  UNL1       -0.1354
     13 N         141.4037  141.0840  169.9875 N.ar    1  UNL1       -0.2450
     14 H         144.2604  144.6011  170.7166 H       1  UNL1        0.1452
     15 H         143.3141  144.3052  172.1039 H       1  UNL1        0.1452
     16 H         140.7182  140.3837  170.0818 H       1  UNL1        0.1919
     17 C         140.9277  137.2421  163.4090 C.3     1  UNL1        0.1019
     18 C         139.4788  137.5728  163.6121 C.3     1  UNL1        0.1313
     19 C         138.6431  138.0257  162.4516 C.3     1  UNL1        0.0335
     20 C         138.3897  138.6768  165.6965 C.3     1  UNL1        0.1741
     21 O         138.8655  137.4505  164.9755 O.3     1  UNL1       -0.3522
     22 C         142.9522  138.5976  162.5067 C.3     1  UNL1        0.0768
     23 C         144.1960  139.3815  162.8041 C.3     1  UNL1        0.0437
     24 C         144.1043  140.8482  163.1050 C.ar    1  UNL1       -0.0207
     25 C         143.3561  141.7588  162.1771 C.ar    1  UNL1       -0.0034
     26 C         143.2645  143.2254  162.4780 C.ar    1  UNL1        0.0111
     27 C         143.9210  143.7814  163.7067 C.ar    1  UNL1        0.0577
     28 CL        143.8293  145.2481  164.0076 Cl      1  UNL1       -0.0822
     29 C         144.6692  142.8708  164.6346 C.ar    1  UNL1        0.0111
     30 C         144.7608  141.4042  164.3337 C.ar    1  UNL1       -0.0034
@<TRIPOS>BOND
     1    20    21    1
     2    21    18    1
     3    18    19    1
     4    18    17    1
     5    17     1    1
     6     1    22    1
     7    22    23    1
     8    23    24    1
     9    24    25   ar
    10    25    26   ar
    11    26    27   ar
    12    27    28    1
    13    27    29   ar
    14    29    30   ar
    15     1     2    1
    16     2     3    1
    17     3     4    1
    18     4     5    1
    19     5     8    1
    20     8     9   ar
    21     9    10   ar
    22    10    11    1
    23    10    12   ar
    24    12    13   ar
    25     5     6    1
    26     6     7    1
    27    30    24   ar
    28     7     2    1
    29    13     8   ar
    30    11    14    1
    31    11    15    1
    32    13    16    1
@<TRIPOS>MOLECULE
*****
 30 32 0 0 0
SMALL
GASTEIGER

@<TRIPOS>ATOM
      1 N         139.4534  138.3312  163.1791 N.3     1  UNL1       -0.2715
      2 C         139.6843  138.8118  164.5811 C.3     1  UNL1        0.0610
      3 C         138.5361  138.9003  165.5422 C.3     1  UNL1        0.0375
      4 C         138.7670  139.3810  166.9443 C.3     1  UNL1        0.0950
      5 N         140.1461  139.7732  167.3851 N.pl3   1  UNL1       -0.2785
      6 C         141.2943  139.6847  166.4239 C.3     1  UNL1        0.0950
      7 C         141.0634  139.2041  165.0219 C.3     1  UNL1        0.0375
      8 C         140.3769  140.2538  168.7871 C.ar    1  UNL1        0.2163
      9 N         141.4052  141.2580  169.2169 N.ar    1  UNL1       -0.1804
     10 C         141.2838  141.4395  170.7009 C.ar    1  UNL1        0.2331
     11 N         142.1190  142.3526  171.5487 N.pl3   1  UNL1       -0.3262
     12 N         140.1807  140.5476  171.1884 N.ar    1  UNL1       -0.1354
     13 N         139.6202  139.8148  170.0056 N.ar    1  UNL1       -0.2450
     14 H         142.8232  142.9018  171.1343 H       1  UNL1        0.1452
     15 H         141.9630  142.4027  172.5194 H       1  UNL1        0.1452
     16 H         138.8848  139.1606  170.0255 H       1  UNL1        0.1919
     17 C         140.5434  137.6080  162.4451 C.3     1  UNL1        0.1019
     18 C         141.3844  138.3391  161.4410 C.3     1  UNL1        0.1313
     19 C         140.8379  138.6298  160.0746 C.3     1  UNL1        0.0335
     20 C         143.9492  137.9246  161.4382 C.3     1  UNL1        0.1741
     21 O         142.7718  138.7794  161.8032 O.3     1  UNL1       -0.3522
     22 C         138.1324  138.5738  162.5110 C.3     1  UNL1        0.0768
     23 C         137.8536  139.8950  161.8581 C.3     1  UNL1        0.0437
     24 C         138.2591  141.1686  162.5391 C.ar    1  UNL1       -0.0207
     25 C         137.3433  141.8083  163.5401 C.ar    1  UNL1       -0.0034
     26 C         137.7489  143.0818  164.2210 C.ar    1  UNL1        0.0111
     27 C         139.0702  143.7156  163.9009 C.ar    1  UNL1        0.0577
     28 CL        139.4757  144.9892  164.5819 Cl      1  UNL1       -0.0822
     29 C         139.9860  143.0759  162.9000 C.ar    1  UNL1        0.0111
     30 C         139.5804  141.8024  162.2190 C.ar    1  UNL1       -0.0034
@<TRIPOS>BOND
     1    20    21    1
     2    21    18    1
     3    18    19    1
     4    18    17    1
     5    17     1    1
     6     1    22    1
     7    22    23    1
     8    23    24    1
     9    24    25   ar
    10    25    26   ar
    11    26    27   ar
    12    27    28    1
    13    27    29   ar
    14    29    30   ar
    15     1     2    1
    16     2     3    1
    17     3     4    1
    18     4     5    1
    19     5     8    1
    20     8     9   ar
    21     9    10   ar
    22    10    11    1
    23    10    12   ar
    24    12    13   ar
    25     5     6    1
    26     6     7    1
    27    30    24   ar
    28     7     2    1
    29    13     8   ar
    30    11    14    1
    31    11    15    1
    32    13    16    1
@<TRIPOS>MOLECULE
*****
 30 32 0 0 0
SMALL
GASTEIGER

@<TRIPOS>ATOM
      1 N         143.0304  138.7122  163.4153 N.3     1  UNL1       -0.2715
      2 C         142.3370  139.2003  164.6526 C.3     1  UNL1        0.0610
      3 C         142.8768  138.8422  166.0055 C.3     1  UNL1        0.0375
      4 C         142.1835  139.3302  167.2429 C.3     1  UNL1        0.0950
      5 N         140.9504  140.1764  167.1274 N.pl3   1  UNL1       -0.2785
      6 C         140.4105  140.5345  165.7744 C.3     1  UNL1        0.0950
      7 C         141.1039  140.0465  164.5371 C.3     1  UNL1        0.0375
      8 C         140.2570  140.6645  168.3647 C.ar    1  UNL1        0.2163
      9 N         140.4394  142.0084  169.0056 N.ar    1  UNL1       -0.1804
     10 C         139.5546  142.0688  170.2155 C.ar    1  UNL1        0.2331
     11 N         139.4223  143.2317  171.1537 N.pl3   1  UNL1       -0.3262
     12 N         138.8256  140.7623  170.3223 N.ar    1  UNL1       -0.1354
     13 N         139.2597  139.8944  169.1785 N.ar    1  UNL1       -0.2450
     14 H         139.9457  144.0510  170.9990 H       1  UNL1        0.1452
     15 H         138.8119  143.1755  171.9241 H       1  UNL1        0.1452
     16 H         138.9452  138.9798  168.9942 H       1  UNL1        0.1919
     17 C         142.3075  137.8150  162.4549 C.3     1  UNL1        0.1019
     18 C         141.2278  138.3725  161.5754 C.3     1  UNL1        0.1313
     19 C         141.4731  139.6269  160.7903 C.3     1  UNL1        0.0335
     20 C         138.8807  137.8582  162.5637 C.3     1  UNL1        0.1741
     21 O         139.9028  137.6757  161.4811 O.3     1  UNL1       -0.3522
     22 C         144.4467  139.1214  163.1383 C.3     1  UNL1        0.0768
     23 C         145.0086  140.3574  163.7759 C.3     1  UNL1        0.0437
     24 C         144.2456  141.6473  163.7123 C.ar    1  UNL1       -0.0207
     25 C         144.0113  142.4424  164.9624 C.ar    1  UNL1       -0.0034
     26 C         143.2483  143.7323  164.8988 C.ar    1  UNL1        0.0111
     27 C         142.7196  144.2270  163.5851 C.ar    1  UNL1        0.0577
     28 CL        141.9566  145.5169  163.5216 Cl      1  UNL1       -0.0822
     29 C         142.9540  143.4319  162.3350 C.ar    1  UNL1        0.0111
     30 C         143.7170  142.1420  162.3986 C.ar    1  UNL1       -0.0034
@<TRIPOS>BOND
     1    20    21    1
     2    21    18    1
     3    18    19    1
     4    18    17    1
     5    17     1    1
     6     1    22    1
     7    22    23    1
     8    23    24    1
     9    24    25   ar
    10    25    26   ar
    11    26    27   ar
    12    27    28    1
    13    27    29   ar
    14    29    30   ar
    15     1     2    1
    16     2     3    1
    17     3     4    1
    18     4     5    1
    19     5     8    1
    20     8     9   ar
    21     9    10   ar
    22    10    11    1
    23    10    12   ar
    24    12    13   ar
    25     5     6    1
    26     6     7    1
    27    30    24   ar
    28     7     2    1
    29    13     8   ar
    30    11    14    1
    31    11    15    1
    32    13    16    1
@<TRIPOS>MOLECULE
*****
 30 32 0 0 0
SMALL
GASTEIGER

@<TRIPOS>ATOM
      1 N         141.0762  140.4354  161.9629 N.3     1  UNL1       -0.2715
      2 C         140.7611  140.3569  163.4274 C.3     1  UNL1        0.0610
      3 C         139.3554  140.0928  163.8790 C.3     1  UNL1        0.0375
      4 C         139.0403  140.0143  165.3434 C.3     1  UNL1        0.0950
      5 N         140.1309  140.2001  166.3562 N.pl3   1  UNL1       -0.2785
      6 C         141.5368  140.4643  165.9047 C.3     1  UNL1        0.0950
      7 C         141.8519  140.5427  164.4402 C.3     1  UNL1        0.0375
      8 C         139.8158  140.1217  167.8207 C.ar    1  UNL1        0.2163
      9 N         140.7218  140.5391  168.9411 N.ar    1  UNL1       -0.1804
     10 C         140.0053  140.2875  170.2347 C.ar    1  UNL1        0.2331
     11 N         140.5431  140.5608  171.6080 N.pl3   1  UNL1       -0.3262
     12 N         138.6566  139.7146  169.9138 N.ar    1  UNL1       -0.1354
     13 N         138.5396  139.6122  168.4219 N.ar    1  UNL1       -0.2450
     14 H         141.4450  140.9401  171.7169 H       1  UNL1        0.1452
     15 H         139.9941  140.3609  172.4004 H       1  UNL1        0.1452
     16 H         137.7616  139.2705  167.9246 H       1  UNL1        0.1919
     17 C         141.1388  139.1821  161.1411 C.3     1  UNL1        0.1019
     18 C         141.8301  137.9652  161.6807 C.3     1  UNL1        0.1313
     19 C         143.2831  137.7358  161.3869 C.3     1  UNL1        0.0335
     20 C         141.2520  136.9530  164.0026 C.3     1  UNL1        0.1741
     21 O         141.0684  136.9776  162.5140 O.3     1  UNL1       -0.3522
     22 C         141.3287  141.7671  161.3204 C.3     1  UNL1        0.0768
     23 C         140.2220  142.7749  161.2234 C.3     1  UNL1        0.0437
     24 C         139.6847  143.4207  162.4661 C.ar    1  UNL1       -0.0207
     25 C         140.6266  144.0281  163.4630 C.ar    1  UNL1       -0.0034
     26 C         140.0893  144.6739  164.7057 C.ar    1  UNL1        0.0111
     27 C         138.6101  144.7123  164.9514 C.ar    1  UNL1        0.0577
     28 CL        138.0728  145.3582  166.1941 Cl      1  UNL1       -0.0822
     29 C         137.6682  144.1050  163.9545 C.ar    1  UNL1        0.0111
     30 C         138.2055  143.4592  162.7119 C.ar    1  UNL1       -0.0034
@<TRIPOS>BOND
     1    20    21    1
     2    21    18    1
     3    18    19    1
     4    18    17    1
     5    17     1    1
     6     1    22    1
     7    22    23    1
     8    23    24    1
     9    24    25   ar
    10    25    26   ar
    11    26    27   ar
    12    27    28    1
    13    27    29   ar
    14    29    30   ar
    15     1     2    1
    16     2     3    1
    17     3     4    1
    18     4     5    1
    19     5     8    1
    20     8     9   ar
    21     9    10   ar
    22    10    11    1
    23    10    12   ar
    24    12    13   ar
    25     5     6    1
    26     6     7    1
    27    30    24   ar
    28     7     2    1
    29    13     8   ar
    30    11    14    1
    31    11    15    1
    32    13    16    1
