@<TRIPOS>MOLECULE
*****
 38 44 0 0 0
SMALL
GASTEIGER

@<TRIPOS>ATOM
      1 C         138.4827  141.7490  164.3771 C.3     1  UNL1        0.0955
      2 C         138.2421  141.7351  162.8965 C.3     1  UNL1        0.0287
      3 C         138.2264  143.0226  162.1271 C.3     1  UNL1        0.0193
      4 C         138.4513  144.3241  162.8382 C.3     1  UNL1        0.0700
      5 C         138.6919  144.3379  164.3187 C.3     1  UNL1        0.0193
      6 C         138.7076  143.0504  165.0882 C.3     1  UNL1        0.0287
      7 C         138.4690  143.6441  163.3024 C.3     1  UNL1        0.1562
      8 O         138.4832  142.4799  163.9981 O.3     1  UNL1       -0.3571
      9 N         138.4357  145.6116  162.0688 N.3     1  UNL1       -0.2925
     10 H         137.9625  146.2992  162.6551 H       1  UNL1        0.1236
     11 C         139.7253  146.2355  161.6245 C.3     1  UNL1        0.1186
     12 C         140.9510  145.3868  161.4585 C.ar    1  UNL1        0.1166
     13 C         141.7502  144.7660  162.5655 C.ar    1  UNL1        0.0600
     14 C         142.8857  144.0054  161.9473 C.ar    1  UNL1        0.1825
     15 O         142.7883  144.1561  160.4582 O.2     1  UNL1       -0.3532
     16 N         141.5925  145.0099  160.1560 N.ar    1  UNL1       -0.0799
     17 C         143.9346  143.2302  162.6883 C.ar    1  UNL1        0.0666
     18 C         144.2363  143.3333  164.1540 C.ar    1  UNL1        0.0102
     19 C         145.3540  142.3826  164.4651 C.ar    1  UNL1        0.0076
     20 C         145.7430  141.6919  163.1917 C.ar    1  UNL1        0.0355
     21 S         144.8658  142.2157  162.0936 S.2     1  UNL1       -0.0833
     22 C         138.4984  140.4614  165.1465 C.3     1  UNL1        0.0604
     23 O         138.8395  140.9456  170.2388 O.2     1  UNL1       -0.2670
     24 C         140.0597  140.3223  169.6283 C.ar    1  UNL1        0.2611
     25 C         141.2103  139.9157  170.5005 C.ar    1  UNL1        0.0623
     26 C         142.4305  139.2925  169.8900 C.ar    1  UNL1        0.0254
     27 C         142.5000  139.0759  168.4074 C.ar    1  UNL1        0.0972
     28 N         143.5772  138.4841  167.5356 N.ar    1  UNL1       -0.2400
     29 C         143.5033  138.3308  166.0453 C.ar    1  UNL1        0.1282
     30 C         142.2811  138.7858  165.3043 C.ar    1  UNL1        0.1588
     31 F         142.2071  138.6326  163.8140 F       1  UNL1       -0.2027
     32 C         141.1328  139.3942  166.0536 C.ar    1  UNL1        0.0500
     33 C         141.3494  139.4825  167.5352 C.ar    1  UNL1        0.0806
     34 N         140.1292  140.1057  168.1457 N.ar    1  UNL1       -0.2915
     35 C         139.1585  140.4026  167.0414 C.3     1  UNL1        0.1402
     36 C         139.7788  139.9629  165.7483 C.3     1  UNL1        0.1335
     37 O         140.1314  139.6274  164.3295 O.3     1  UNL1       -0.3806
     38 H         139.3999  139.8822  163.7456 H       1  UNL1        0.2108
@<TRIPOS>BOND
     1    23    24    2
     2    24    25   ar
     3    25    26   ar
     4    26    27   ar
     5    27    28   ar
     6    28    29   ar
     7    29    30   ar
     8    30    31    1
     9    30    32   ar
    10    32    33   ar
    11    33    34   ar
    12    34    35    1
    13    35    36    1
    14    36    37    1
    15    36    22    1
    16    22     1    1
    17     1     2    1
    18     2     3    1
    19     3     4    1
    20     4     9    1
    21     9    11    1
    22    11    12    1
    23    12    13   ar
    24    13    14   ar
    25    14    17    1
    26    17    18   ar
    27    18    19   ar
    28    19    20   ar
    29    20    21   ar
    30    14    15   ar
    31    15    16   ar
    32     4     5    1
    33     5     6    1
    34     4     7    1
    35     7     8    1
    36    34    24   ar
    37     6     1    1
    38    33    27   ar
    39     8     1    1
    40    36    32    1
    41    16    12   ar
    42    21    17   ar
    43    37    38    1
    44     9    10    1
@<TRIPOS>MOLECULE
*****
 38 44 0 0 0
SMALL
GASTEIGER

@<TRIPOS>ATOM
      1 C         138.3606  141.8481  164.3468 C.3     1  UNL1        0.0955
      2 C         138.0822  141.8687  162.8729 C.3     1  UNL1        0.0287
      3 C         138.0933  143.1693  162.1256 C.3     1  UNL1        0.0193
      4 C         138.3828  144.4492  162.8522 C.3     1  UNL1        0.0700
      5 C         138.6611  144.4286  164.3260 C.3     1  UNL1        0.0193
      6 C         138.6500  143.1280  165.0733 C.3     1  UNL1        0.0287
      7 C         138.3877  143.7610  163.3044 C.3     1  UNL1        0.1562
      8 O         138.3777  142.5851  163.9801 O.3     1  UNL1       -0.3571
      9 N         138.3939  145.7498  162.1049 N.3     1  UNL1       -0.2925
     10 H         137.9450  146.4395  162.7076 H       1  UNL1        0.1236
     11 C         139.6954  146.3469  161.6582 C.3     1  UNL1        0.1186
     12 C         140.8953  145.4685  161.4614 C.ar    1  UNL1        0.1166
     13 C         141.7062  144.8272  162.5481 C.ar    1  UNL1        0.0600
     14 C         142.8070  144.0395  161.9016 C.ar    1  UNL1        0.1825
     15 O         142.6763  144.1940  160.4154 O.2     1  UNL1       -0.3532
     16 N         141.4947  145.0772  160.1433 N.ar    1  UNL1       -0.0799
     17 C         143.8545  143.2380  162.6160 C.ar    1  UNL1        0.0666
     18 C         144.1350  143.2676  164.0892 C.ar    1  UNL1        0.0102
     19 C         145.2593  142.3141  164.3663 C.ar    1  UNL1        0.0076
     20 C         145.6737  141.6953  163.0642 C.ar    1  UNL1        0.0355
     21 S         144.8055  142.2663  161.9826 S.2     1  UNL1       -0.0833
     22 C         138.3495  140.5475  165.0940 C.3     1  UNL1        0.0604
     23 O         142.5876  139.2487  162.5184 O.2     1  UNL1       -0.2670
     24 C         142.7612  139.1702  164.0062 C.ar    1  UNL1        0.2611
     25 C         144.0775  138.7449  164.5864 C.ar    1  UNL1        0.0623
     26 C         144.2511  138.6664  166.0742 C.ar    1  UNL1        0.0254
     27 C         143.1084  139.0132  166.9819 C.ar    1  UNL1        0.0972
     28 N         142.9967  139.0247  168.4845 N.ar    1  UNL1       -0.2400
     29 C         141.7704  139.3999  169.2625 C.ar    1  UNL1        0.1282
     30 C         140.5198  139.8067  168.5410 C.ar    1  UNL1        0.1588
     31 F         139.2935  140.1820  169.3189 F       1  UNL1       -0.2027
     32 C         140.4956  139.8382  167.0415 C.ar    1  UNL1        0.0500
     33 C         141.7922  139.4385  166.4018 C.ar    1  UNL1        0.0806
     34 N         141.6186  139.5170  164.9140 N.ar    1  UNL1       -0.2915
     35 C         140.2147  139.9652  164.6341 C.3     1  UNL1        0.1402
     36 C         139.5206  140.1637  165.9490 C.3     1  UNL1        0.1335
     37 O         138.5818  140.4424  167.0851 O.3     1  UNL1       -0.3806
     38 H         137.7216  140.7199  166.7331 H       1  UNL1        0.2108
@<TRIPOS>BOND
     1    23    24    2
     2    24    25   ar
     3    25    26   ar
     4    26    27   ar
     5    27    28   ar
     6    28    29   ar
     7    29    30   ar
     8    30    31    1
     9    30    32   ar
    10    32    33   ar
    11    33    34   ar
    12    34    35    1
    13    35    36    1
    14    36    37    1
    15    36    22    1
    16    22     1    1
    17     1     2    1
    18     2     3    1
    19     3     4    1
    20     4     9    1
    21     9    11    1
    22    11    12    1
    23    12    13   ar
    24    13    14   ar
    25    14    17    1
    26    17    18   ar
    27    18    19   ar
    28    19    20   ar
    29    20    21   ar
    30    14    15   ar
    31    15    16   ar
    32     4     5    1
    33     5     6    1
    34     4     7    1
    35     7     8    1
    36    34    24   ar
    37     6     1    1
    38    33    27   ar
    39     8     1    1
    40    36    32    1
    41    16    12   ar
    42    21    17   ar
    43    37    38    1
    44     9    10    1
@<TRIPOS>MOLECULE
*****
 38 44 0 0 0
SMALL
GASTEIGER

@<TRIPOS>ATOM
      1 C         138.5472  138.7513  164.4278 C.3     1  UNL1        0.0955
      2 C         138.8640  137.7979  163.3138 C.3     1  UNL1        0.0287
      3 C         138.5563  138.1738  161.8946 C.3     1  UNL1        0.0193
      4 C         137.9319  139.5031  161.5894 C.3     1  UNL1        0.0700
      5 C         137.6152  140.4564  162.7033 C.3     1  UNL1        0.0193
      6 C         137.9228  140.0805  164.1225 C.3     1  UNL1        0.0287
      7 C         138.0822  139.3414  162.3827 C.3     1  UNL1        0.1562
      8 O         138.3604  139.0015  163.6659 O.3     1  UNL1       -0.3571
      9 N         137.6243  139.8790  160.1702 N.3     1  UNL1       -0.2925
     10 H         136.6921  140.2932  160.1707 H       1  UNL1        0.1236
     11 C         138.5207  140.8310  159.4354 C.3     1  UNL1        0.1186
     12 C         139.1162  142.0059  160.1532 C.ar    1  UNL1        0.1166
     13 C         140.4730  142.0543  160.7908 C.ar    1  UNL1        0.0600
     14 C         140.6547  143.4170  161.3910 C.ar    1  UNL1        0.1825
     15 O         139.4103  144.2107  161.1243 O.2     1  UNL1       -0.3532
     16 N         138.4594  143.3386  160.3592 N.ar    1  UNL1       -0.0799
     17 C         141.8680  143.9009  162.1285 C.ar    1  UNL1        0.0666
     18 C         141.8719  144.8315  163.3048 C.ar    1  UNL1        0.0102
     19 C         143.2967  145.0449  163.7224 C.ar    1  UNL1        0.0076
     20 C         144.1734  144.2462  162.8040 C.ar    1  UNL1        0.0355
     21 S         143.2905  143.5392  161.8190 S.2     1  UNL1       -0.0833
     22 C         138.8549  138.3753  165.8469 C.3     1  UNL1        0.0604
     23 O         143.0730  140.6154  163.9837 O.2     1  UNL1       -0.2670
     24 C         142.7201  141.0898  165.3623 C.ar    1  UNL1        0.2611
     25 C         143.5749  142.1169  166.0437 C.ar    1  UNL1        0.0623
     26 C         143.2221  142.5912  167.4223 C.ar    1  UNL1        0.0254
     27 C         142.0144  142.0385  168.1194 C.ar    1  UNL1        0.0972
     28 N         141.4300  142.3239  169.4786 N.ar    1  UNL1       -0.2400
     29 C         140.1986  141.6836  170.0476 C.ar    1  UNL1        0.1282
     30 C         139.4427  140.6669  169.2446 C.ar    1  UNL1        0.1588
     31 F         138.2114  140.0265  169.8136 F       1  UNL1       -0.2027
     32 C         139.9181  140.2905  167.8726 C.ar    1  UNL1        0.0500
     33 C         141.1597  141.0114  167.4380 C.ar    1  UNL1        0.0806
     34 N         141.5125  140.5370  166.0594 N.ar    1  UNL1       -0.2915
     35 C         140.4890  139.5230  165.6420 C.3     1  UNL1        0.1402
     36 C         139.5036  139.3706  166.7627 C.3     1  UNL1        0.1335
     37 O         138.3826  139.0101  167.6918 O.3     1  UNL1       -0.3806
     38 H         137.8151  138.3454  167.2712 H       1  UNL1        0.2108
@<TRIPOS>BOND
     1    23    24    2
     2    24    25   ar
     3    25    26   ar
     4    26    27   ar
     5    27    28   ar
     6    28    29   ar
     7    29    30   ar
     8    30    31    1
     9    30    32   ar
    10    32    33   ar
    11    33    34   ar
    12    34    35    1
    13    35    36    1
    14    36    37    1
    15    36    22    1
    16    22     1    1
    17     1     2    1
    18     2     3    1
    19     3     4    1
    20     4     9    1
    21     9    11    1
    22    11    12    1
    23    12    13   ar
    24    13    14   ar
    25    14    17    1
    26    17    18   ar
    27    18    19   ar
    28    19    20   ar
    29    20    21   ar
    30    14    15   ar
    31    15    16   ar
    32     4     5    1
    33     5     6    1
    34     4     7    1
    35     7     8    1
    36    34    24   ar
    37     6     1    1
    38    33    27   ar
    39     8     1    1
    40    36    32    1
    41    16    12   ar
    42    21    17   ar
    43    37    38    1
    44     9    10    1
@<TRIPOS>MOLECULE
*****
 38 44 0 0 0
SMALL
GASTEIGER

@<TRIPOS>ATOM
      1 C         138.7785  138.9697  164.1805 C.3     1  UNL1        0.0955
      2 C         139.0379  137.9599  163.1020 C.3     1  UNL1        0.0287
      3 C         138.5426  138.2075  161.7079 C.3     1  UNL1        0.0193
      4 C         137.7880  139.4648  161.3923 C.3     1  UNL1        0.0700
      5 C         137.5286  140.4745  162.4708 C.3     1  UNL1        0.0193
      6 C         138.0238  140.2270  163.8649 C.3     1  UNL1        0.0287
      7 C         138.0397  139.3732  162.1710 C.3     1  UNL1        0.1562
      8 O         138.4874  139.1493  163.4315 O.3     1  UNL1       -0.3571
      9 N         137.2927  139.7124  159.9983 N.3     1  UNL1       -0.2925
     10 H         136.3778  140.1548  160.0850 H       1  UNL1        0.1236
     11 C         138.0959  140.5598  159.0566 C.3     1  UNL1        0.1186
     12 C         138.8906  141.7183  159.5822 C.ar    1  UNL1        0.1166
     13 C         140.2308  141.6372  160.2508 C.ar    1  UNL1        0.0600
     14 C         140.6531  143.0301  160.6133 C.ar    1  UNL1        0.1825
     15 O         139.5739  143.9722  160.1687 O.2     1  UNL1       -0.3532
     16 N         138.4845  143.1614  159.5314 N.ar    1  UNL1       -0.0799
     17 C         141.9305  143.4137  161.2998 C.ar    1  UNL1        0.0666
     18 C         142.0942  144.5123  162.3079 C.ar    1  UNL1        0.0102
     19 C         143.5332  144.5435  162.7299 C.ar    1  UNL1        0.0076
     20 C         144.2589  143.4642  161.9826 C.ar    1  UNL1        0.0355
     21 S         143.2684  142.7659  161.0988 S.2     1  UNL1       -0.0833
     22 C         139.2737  138.7221  165.5746 C.3     1  UNL1        0.0604
     23 O         138.0550  140.0304  170.3793 O.2     1  UNL1       -0.2670
     24 C         139.2973  140.7111  169.8859 C.ar    1  UNL1        0.2611
     25 C         140.0380  141.6605  170.7802 C.ar    1  UNL1        0.0623
     26 C         141.2802  142.3412  170.2867 C.ar    1  UNL1        0.0254
     27 C         141.7818  142.0724  168.8989 C.ar    1  UNL1        0.0972
     28 N         142.9774  142.6026  168.1507 N.ar    1  UNL1       -0.2400
     29 C         143.3566  142.2369  166.7463 C.ar    1  UNL1        0.1282
     30 C         142.5147  141.2677  165.9704 C.ar    1  UNL1        0.1588
     31 F         142.8938  140.9020  164.5659 F       1  UNL1       -0.2027
     32 C         141.2937  140.6643  166.5989 C.ar    1  UNL1        0.0500
     33 C         141.0411  141.1229  168.0045 C.ar    1  UNL1        0.0806
     34 N         139.7989  140.4423  168.4980 N.ar    1  UNL1       -0.2915
     35 C         139.2837  139.5630  167.3973 C.3     1  UNL1        0.1402
     36 C         140.2075  139.7002  166.2236 C.3     1  UNL1        0.1335
     37 O         140.9362  139.6330  164.9142 O.3     1  UNL1       -0.3806
     38 H         140.4741  139.0232  164.3180 H       1  UNL1        0.2108
@<TRIPOS>BOND
     1    23    24    2
     2    24    25   ar
     3    25    26   ar
     4    26    27   ar
     5    27    28   ar
     6    28    29   ar
     7    29    30   ar
     8    30    31    1
     9    30    32   ar
    10    32    33   ar
    11    33    34   ar
    12    34    35    1
    13    35    36    1
    14    36    37    1
    15    36    22    1
    16    22     1    1
    17     1     2    1
    18     2     3    1
    19     3     4    1
    20     4     9    1
    21     9    11    1
    22    11    12    1
    23    12    13   ar
    24    13    14   ar
    25    14    17    1
    26    17    18   ar
    27    18    19   ar
    28    19    20   ar
    29    20    21   ar
    30    14    15   ar
    31    15    16   ar
    32     4     5    1
    33     5     6    1
    34     4     7    1
    35     7     8    1
    36    34    24   ar
    37     6     1    1
    38    33    27   ar
    39     8     1    1
    40    36    32    1
    41    16    12   ar
    42    21    17   ar
    43    37    38    1
    44     9    10    1
@<TRIPOS>MOLECULE
*****
 38 44 0 0 0
SMALL
GASTEIGER

@<TRIPOS>ATOM
      1 C         143.6449  140.5778  159.7571 C.3     1  UNL1        0.0955
      2 C         142.9242  140.6489  158.4434 C.3     1  UNL1        0.0287
      3 C         142.6987  141.9765  157.7825 C.3     1  UNL1        0.0193
      4 C         143.1938  143.2329  158.4353 C.3     1  UNL1        0.0700
      5 C         143.9145  143.1618  159.7489 C.3     1  UNL1        0.0193
      6 C         144.1400  141.8342  160.4099 C.3     1  UNL1        0.0287
      7 C         143.3410  142.5285  158.8356 C.3     1  UNL1        0.1562
      8 O         143.5449  141.3282  159.4332 O.3     1  UNL1       -0.3571
      9 N         142.9683  144.5605  157.7745 N.3     1  UNL1       -0.2925
     10 H         142.9152  144.3848  156.7712 H       1  UNL1        0.1236
     11 C         141.7664  145.3827  158.1343 C.3     1  UNL1        0.1186
     12 C         140.7674  144.8582  159.1226 C.ar    1  UNL1        0.1166
     13 C         140.7461  145.1495  160.5938 C.ar    1  UNL1        0.0600
     14 C         139.5798  144.4216  161.1937 C.ar    1  UNL1        0.1825
     15 O         138.8802  143.6804  160.0932 O.2     1  UNL1       -0.3532
     16 N         139.6142  143.9502  158.8131 N.ar    1  UNL1       -0.0799
     17 C         139.1827  144.4328  162.6402 C.ar    1  UNL1        0.0666
     18 C         140.0571  144.8329  163.7914 C.ar    1  UNL1        0.0102
     19 C         139.2563  144.6934  165.0520 C.ar    1  UNL1        0.0076
     20 C         137.8870  144.2070  164.6799 C.ar    1  UNL1        0.0355
     21 S         137.8415  144.0460  163.1894 S.2     1  UNL1       -0.0833
     22 C         143.8704  139.2502  160.4179 C.3     1  UNL1        0.0604
     23 O         138.9622  137.8554  160.9140 O.2     1  UNL1       -0.2670
     24 C         139.6745  137.9634  162.2296 C.ar    1  UNL1        0.2611
     25 C         138.9413  137.6733  163.5055 C.ar    1  UNL1        0.0623
     26 C         139.6536  137.7814  164.8212 C.ar    1  UNL1        0.0254
     27 C         141.0992  138.1795  164.8608 C.ar    1  UNL1        0.0972
     28 N         142.0511  138.3650  166.0141 N.ar    1  UNL1       -0.2400
     29 C         143.4900  138.7720  165.8972 C.ar    1  UNL1        0.1282
     30 C         144.0890  139.0300  164.5464 C.ar    1  UNL1        0.1588
     31 F         145.5280  139.4370  164.4294 F       1  UNL1       -0.2027
     32 C         143.2491  138.8810  163.3126 C.ar    1  UNL1        0.0500
     33 C         141.8325  138.4696  163.5849 C.ar    1  UNL1        0.0806
     34 N         141.1202  138.3616  162.2693 N.ar    1  UNL1       -0.2915
     35 C         142.0965  138.7062  161.1839 C.3     1  UNL1        0.1402
     36 C         143.4122  139.0272  161.8286 C.3     1  UNL1        0.1335
     37 O         144.8238  139.3948  162.1785 O.3     1  UNL1       -0.3806
     38 H         145.3185  139.5872  161.3667 H       1  UNL1        0.2108
@<TRIPOS>BOND
     1    23    24    2
     2    24    25   ar
     3    25    26   ar
     4    26    27   ar
     5    27    28   ar
     6    28    29   ar
     7    29    30   ar
     8    30    31    1
     9    30    32   ar
    10    32    33   ar
    11    33    34   ar
    12    34    35    1
    13    35    36    1
    14    36    37    1
    15    36    22    1
    16    22     1    1
    17     1     2    1
    18     2     3    1
    19     3     4    1
    20     4     9    1
    21     9    11    1
    22    11    12    1
    23    12    13   ar
    24    13    14   ar
    25    14    17    1
    26    17    18   ar
    27    18    19   ar
    28    19    20   ar
    29    20    21   ar
    30    14    15   ar
    31    15    16   ar
    32     4     5    1
    33     5     6    1
    34     4     7    1
    35     7     8    1
    36    34    24   ar
    37     6     1    1
    38    33    27   ar
    39     8     1    1
    40    36    32    1
    41    16    12   ar
    42    21    17   ar
    43    37    38    1
    44     9    10    1
@<TRIPOS>MOLECULE
*****
 38 44 0 0 0
SMALL
GASTEIGER

@<TRIPOS>ATOM
      1 C         143.9636  140.5979  165.0770 C.3     1  UNL1        0.0955
      2 C         143.5255  141.8380  165.7984 C.3     1  UNL1        0.0287
      3 C         142.6996  141.7279  167.0457 C.3     1  UNL1        0.0193
      4 C         142.3118  140.3777  167.5717 C.3     1  UNL1        0.0700
      5 C         142.7499  139.1377  166.8504 C.3     1  UNL1        0.0193
      6 C         143.5758  139.2477  165.6030 C.3     1  UNL1        0.0287
      7 C         142.7653  140.3877  166.8844 C.3     1  UNL1        0.1562
      8 O         143.5120  140.4873  165.7566 O.3     1  UNL1       -0.3571
      9 N         141.4859  140.2676  168.8190 N.3     1  UNL1       -0.2925
     10 H         141.8598  140.9479  169.4807 H       1  UNL1        0.1236
     11 C         140.0039  140.4910  168.7593 C.3     1  UNL1        0.1186
     12 C         139.2125  139.9662  167.5980 C.ar    1  UNL1        0.1166
     13 C         139.3209  140.4299  166.1757 C.ar    1  UNL1        0.0600
     14 C         138.3492  139.6358  165.3540 C.ar    1  UNL1        0.1825
     15 O         137.6402  138.6814  166.2684 O.2     1  UNL1       -0.3532
     16 N         138.1738  138.8855  167.6554 N.ar    1  UNL1       -0.0799
     17 C         138.1257  139.7723  163.8769 C.ar    1  UNL1        0.0666
     18 C         138.2962  138.6873  162.8555 C.ar    1  UNL1        0.0102
     19 C         137.9684  139.2622  161.5094 C.ar    1  UNL1        0.0076
     20 C         137.5952  140.7026  161.6990 C.ar    1  UNL1        0.0355
     21 S         137.6924  141.0179  163.1622 S.2     1  UNL1       -0.0833
     22 C         144.7894  140.7080  163.8297 C.3     1  UNL1        0.0604
     23 O         142.6364  144.6542  161.3651 O.2     1  UNL1       -0.2670
     24 C         142.5390  143.3660  160.6027 C.ar    1  UNL1        0.2611
     25 C         141.8623  143.3360  159.2644 C.ar    1  UNL1        0.0623
     26 C         141.7649  142.0478  158.5020 C.ar    1  UNL1        0.0254
     27 C         142.3442  140.7898  159.0779 C.ar    1  UNL1        0.0972
     28 N         142.3926  139.3804  158.5473 N.ar    1  UNL1       -0.2400
     29 C         143.0154  138.2088  159.2468 C.ar    1  UNL1        0.1282
     30 C         143.6593  138.3924  160.5891 C.ar    1  UNL1        0.1588
     31 F         144.2821  137.2208  161.2887 F       1  UNL1       -0.2027
     32 C         143.6804  139.7476  161.2318 C.ar    1  UNL1        0.0500
     33 C         143.0208  140.8199  160.4162 C.ar    1  UNL1        0.0806
     34 N         143.1182  142.1080  161.1786 N.ar    1  UNL1       -0.2915
     35 C         143.8380  141.8317  162.4654 C.3     1  UNL1        0.1402
     36 C         144.1854  140.3729  162.4982 C.3     1  UNL1        0.1335
     37 O         144.6591  138.9841  162.8094 O.3     1  UNL1       -0.3806
     38 H         145.1012  138.9791  163.6728 H       1  UNL1        0.2108
@<TRIPOS>BOND
     1    23    24    2
     2    24    25   ar
     3    25    26   ar
     4    26    27   ar
     5    27    28   ar
     6    28    29   ar
     7    29    30   ar
     8    30    31    1
     9    30    32   ar
    10    32    33   ar
    11    33    34   ar
    12    34    35    1
    13    35    36    1
    14    36    37    1
    15    36    22    1
    16    22     1    1
    17     1     2    1
    18     2     3    1
    19     3     4    1
    20     4     9    1
    21     9    11    1
    22    11    12    1
    23    12    13   ar
    24    13    14   ar
    25    14    17    1
    26    17    18   ar
    27    18    19   ar
    28    19    20   ar
    29    20    21   ar
    30    14    15   ar
    31    15    16   ar
    32     4     5    1
    33     5     6    1
    34     4     7    1
    35     7     8    1
    36    34    24   ar
    37     6     1    1
    38    33    27   ar
    39     8     1    1
    40    36    32    1
    41    16    12   ar
    42    21    17   ar
    43    37    38    1
    44     9    10    1
@<TRIPOS>MOLECULE
*****
 38 44 0 0 0
SMALL
GASTEIGER

@<TRIPOS>ATOM
      1 C         138.3297  140.2162  162.6138 C.3     1  UNL1        0.0955
      2 C         138.4808  141.0692  161.3891 C.3     1  UNL1        0.0287
      3 C         138.9242  140.4524  160.0956 C.3     1  UNL1        0.0193
      4 C         139.2164  138.9827  160.0268 C.3     1  UNL1        0.0700
      5 C         139.0652  138.1299  161.2515 C.3     1  UNL1        0.0193
      6 C         138.6219  138.7466  162.5450 C.3     1  UNL1        0.0287
      7 C         138.9762  139.2756  160.7580 C.3     1  UNL1        0.1562
      8 O         138.5753  139.8332  161.9275 O.3     1  UNL1       -0.3571
      9 N         139.6597  138.3659  158.7334 N.3     1  UNL1       -0.2925
     10 H         139.1696  138.8606  157.9880 H       1  UNL1        0.1236
     11 C         141.1138  138.3592  158.3653 C.3     1  UNL1        0.1186
     12 C         142.1596  138.4133  159.4394 C.ar    1  UNL1        0.1166
     13 C         142.6006  139.6411  160.1795 C.ar    1  UNL1        0.0600
     14 C         143.6615  139.2356  161.1594 C.ar    1  UNL1        0.1825
     15 O         143.8762  137.7573  161.0248 O.2     1  UNL1       -0.3532
     16 N         142.9479  137.2490  159.9617 N.ar    1  UNL1       -0.0799
     17 C         144.3813  140.1484  162.1074 C.ar    1  UNL1        0.0666
     18 C         144.8456  139.7958  163.4894 C.ar    1  UNL1        0.0102
     19 C         145.5145  141.0035  164.0760 C.ar    1  UNL1        0.0076
     20 C         145.4635  142.1026  163.0564 C.ar    1  UNL1        0.0355
     21 S         144.7631  141.5741  161.8398 S.2     1  UNL1       -0.0833
     22 C         137.8863  140.8330  163.9072 C.3     1  UNL1        0.0604
     23 O         142.2062  143.5563  163.4542 O.2     1  UNL1       -0.2670
     24 C         142.0878  142.8651  164.7802 C.ar    1  UNL1        0.2611
     25 C         143.1736  143.0157  165.8040 C.ar    1  UNL1        0.0623
     26 C         143.0552  142.3246  167.1300 C.ar    1  UNL1        0.0254
     27 C         141.8509  141.4829  167.4322 C.ar    1  UNL1        0.0972
     28 N         141.4711  140.6883  168.6549 N.ar    1  UNL1       -0.2400
     29 C         140.2151  139.8839  168.8136 C.ar    1  UNL1        0.1282
     30 C         139.2151  139.8267  167.6970 C.ar    1  UNL1        0.1588
     31 F         137.9590  139.0222  167.8557 F       1  UNL1       -0.2027
     32 C         139.4710  140.5739  166.4218 C.ar    1  UNL1        0.0500
     33 C         140.7651  141.3323  166.4084 C.ar    1  UNL1        0.0806
     34 N         140.8836  142.0235  165.0824 N.ar    1  UNL1       -0.2915
     35 C         139.6627  141.6922  164.2763 C.3     1  UNL1        0.1402
     36 C         138.7897  140.7963  165.1042 C.3     1  UNL1        0.1335
     37 O         137.7279  139.9081  165.6818 O.3     1  UNL1       -0.3806
     38 H         137.0132  139.7961  165.0355 H       1  UNL1        0.2108
@<TRIPOS>BOND
     1    23    24    2
     2    24    25   ar
     3    25    26   ar
     4    26    27   ar
     5    27    28   ar
     6    28    29   ar
     7    29    30   ar
     8    30    31    1
     9    30    32   ar
    10    32    33   ar
    11    33    34   ar
    12    34    35    1
    13    35    36    1
    14    36    37    1
    15    36    22    1
    16    22     1    1
    17     1     2    1
    18     2     3    1
    19     3     4    1
    20     4     9    1
    21     9    11    1
    22    11    12    1
    23    12    13   ar
    24    13    14   ar
    25    14    17    1
    26    17    18   ar
    27    18    19   ar
    28    19    20   ar
    29    20    21   ar
    30    14    15   ar
    31    15    16   ar
    32     4     5    1
    33     5     6    1
    34     4     7    1
    35     7     8    1
    36    34    24   ar
    37     6     1    1
    38    33    27   ar
    39     8     1    1
    40    36    32    1
    41    16    12   ar
    42    21    17   ar
    43    37    38    1
    44     9    10    1
@<TRIPOS>MOLECULE
*****
 38 44 0 0 0
SMALL
GASTEIGER

@<TRIPOS>ATOM
      1 C         144.3822  140.7221  162.5718 C.3     1  UNL1        0.0955
      2 C         144.7375  142.1773  162.4927 C.3     1  UNL1        0.0287
      3 C         144.7207  142.8826  161.1690 C.3     1  UNL1        0.0193
      4 C         144.3486  142.1327  159.9243 C.3     1  UNL1        0.0700
      5 C         143.9933  140.6775  160.0034 C.3     1  UNL1        0.0193
      6 C         144.0101  139.9722  161.3272 C.3     1  UNL1        0.0287
      7 C         144.3436  141.7034  160.6270 C.3     1  UNL1        0.1562
      8 O         144.3588  141.0657  161.8239 O.3     1  UNL1       -0.3571
      9 N         144.3317  142.8379  158.6006 N.3     1  UNL1       -0.2925
     10 H         144.6596  142.1673  157.9054 H       1  UNL1        0.1236
     11 C         143.0512  143.4155  158.0748 C.3     1  UNL1        0.1186
     12 C         142.0469  144.0001  159.0233 C.ar    1  UNL1        0.1166
     13 C         141.1219  143.2263  159.9152 C.ar    1  UNL1        0.0600
     14 C         140.2947  144.2092  160.6896 C.ar    1  UNL1        0.1825
     15 O         140.7084  145.5905  160.2763 O.2     1  UNL1       -0.3532
     16 N         141.7914  145.4612  159.2465 N.ar    1  UNL1       -0.0799
     17 C         139.2390  143.8702  161.6999 C.ar    1  UNL1        0.0666
     18 C         138.8011  144.7378  162.8424 C.ar    1  UNL1        0.0102
     19 C         137.7273  144.0080  163.5937 C.ar    1  UNL1        0.0076
     20 C         137.5017  142.6893  162.9154 C.ar    1  UNL1        0.0355
     21 S         138.4359  142.6041  161.7450 S.2     1  UNL1       -0.0833
     22 C         144.3990  140.0168  163.8956 C.3     1  UNL1        0.0604
     23 O         140.4386  136.8825  163.0159 O.2     1  UNL1       -0.2670
     24 C         140.2157  137.7903  164.1890 C.ar    1  UNL1        0.2611
     25 C         138.9332  137.7143  164.9631 C.ar    1  UNL1        0.0623
     26 C         138.7102  138.6220  166.1362 C.ar    1  UNL1        0.0254
     27 C         139.7699  139.6058  166.5353 C.ar    1  UNL1        0.0972
     28 N         139.8196  140.6214  167.6473 N.ar    1  UNL1       -0.2400
     29 C         140.9643  141.5496  167.9266 C.ar    1  UNL1        0.1282
     30 C         142.1893  141.5110  167.0619 C.ar    1  UNL1        0.1588
     31 F         143.3340  142.4392  167.3413 F       1  UNL1       -0.2027
     32 C         142.2697  140.5443  165.9178 C.ar    1  UNL1        0.0500
     33 C         141.0524  139.6818  165.7612 C.ar    1  UNL1        0.0806
     34 N         141.2753  138.7740  164.5881 N.ar    1  UNL1       -0.2915
     35 C         142.6304  139.0755  164.0197 C.3     1  UNL1        0.1402
     36 C         143.2449  140.1695  164.8415 C.3     1  UNL1        0.1335
     37 O         144.1007  141.2317  165.4656 O.3     1  UNL1       -0.3806
     38 H         144.9378  141.2990  164.9803 H       1  UNL1        0.2108
@<TRIPOS>BOND
     1    23    24    2
     2    24    25   ar
     3    25    26   ar
     4    26    27   ar
     5    27    28   ar
     6    28    29   ar
     7    29    30   ar
     8    30    31    1
     9    30    32   ar
    10    32    33   ar
    11    33    34   ar
    12    34    35    1
    13    35    36    1
    14    36    37    1
    15    36    22    1
    16    22     1    1
    17     1     2    1
    18     2     3    1
    19     3     4    1
    20     4     9    1
    21     9    11    1
    22    11    12    1
    23    12    13   ar
    24    13    14   ar
    25    14    17    1
    26    17    18   ar
    27    18    19   ar
    28    19    20   ar
    29    20    21   ar
    30    14    15   ar
    31    15    16   ar
    32     4     5    1
    33     5     6    1
    34     4     7    1
    35     7     8    1
    36    34    24   ar
    37     6     1    1
    38    33    27   ar
    39     8     1    1
    40    36    32    1
    41    16    12   ar
    42    21    17   ar
    43    37    38    1
    44     9    10    1
@<TRIPOS>MOLECULE
*****
 38 44 0 0 0
SMALL
GASTEIGER

@<TRIPOS>ATOM
      1 C         140.5950  138.6613  159.6591 C.3     1  UNL1        0.0955
      2 C         140.4708  139.3974  158.3579 C.3     1  UNL1        0.0287
      3 C         141.7032  139.8364  157.6240 C.3     1  UNL1        0.0193
      4 C         143.0597  139.5394  158.1912 C.3     1  UNL1        0.0700
      5 C         143.1838  138.8034  159.4923 C.3     1  UNL1        0.0193
      6 C         141.9515  138.3643  160.2263 C.3     1  UNL1        0.0287
      7 C         142.4132  139.2788  158.6297 C.3     1  UNL1        0.1562
      8 O         141.2989  138.8818  159.2932 O.3     1  UNL1       -0.3571
      9 N         144.2920  139.9784  157.4573 N.3     1  UNL1       -0.2925
     10 H         144.0917  139.8826  156.4618 H       1  UNL1        0.1236
     11 C         144.8316  141.3634  157.6591 C.3     1  UNL1        0.1186
     12 C         144.2938  142.2243  158.7635 C.ar    1  UNL1        0.1166
     13 C         144.7222  142.1846  160.2004 C.ar    1  UNL1        0.0600
     14 C         143.9264  143.2118  160.9498 C.ar    1  UNL1        0.1825
     15 O         143.0062  143.8863  159.9761 O.2     1  UNL1       -0.3532
     16 N         143.2333  143.2759  158.6248 N.ar    1  UNL1       -0.0799
     17 C         144.0322  143.5119  162.4158 C.ar    1  UNL1        0.0666
     18 C         143.7126  144.8217  163.0729 C.ar    1  UNL1        0.0102
     19 C         143.9591  144.6741  164.5451 C.ar    1  UNL1        0.0076
     20 C         144.4311  143.2729  164.7978 C.ar    1  UNL1        0.0355
     21 S         144.4763  142.5546  163.4818 S.2     1  UNL1       -0.0833
     22 C         139.3627  138.2223  160.3930 C.3     1  UNL1        0.0604
     23 O         138.0298  143.1702  160.5475 O.2     1  UNL1       -0.2670
     24 C         138.0561  142.5298  161.9036 C.ar    1  UNL1        0.2611
     25 C         137.7122  143.3362  163.1207 C.ar    1  UNL1        0.0623
     26 C         137.7385  142.6958  164.4768 C.ar    1  UNL1        0.0254
     27 C         138.1086  141.2489  164.6159 C.ar    1  UNL1        0.0972
     28 N         138.2166  140.3593  165.8273 N.ar    1  UNL1       -0.2400
     29 C         138.6039  138.9103  165.8103 C.ar    1  UNL1        0.1282
     30 C         138.9220  138.2342  164.5096 C.ar    1  UNL1        0.1588
     31 F         139.3093  136.7852  164.4926 F       1  UNL1       -0.2027
     32 C         138.8528  139.0072  163.2259 C.ar    1  UNL1        0.0500
     33 C         138.4525  140.4424  163.3988 C.ar    1  UNL1        0.0806
     34 N         138.4263  141.0829  162.0427 N.ar    1  UNL1       -0.2915
     35 C         138.8103  140.0434  161.0317 C.3     1  UNL1        0.1402
     36 C         139.0738  138.7606  161.7630 C.3     1  UNL1        0.1335
     37 O         139.3978  137.3652  162.2079 O.3     1  UNL1       -0.3806
     38 H         139.6239  136.8238  161.4354 H       1  UNL1        0.2108
@<TRIPOS>BOND
     1    23    24    2
     2    24    25   ar
     3    25    26   ar
     4    26    27   ar
     5    27    28   ar
     6    28    29   ar
     7    29    30   ar
     8    30    31    1
     9    30    32   ar
    10    32    33   ar
    11    33    34   ar
    12    34    35    1
    13    35    36    1
    14    36    37    1
    15    36    22    1
    16    22     1    1
    17     1     2    1
    18     2     3    1
    19     3     4    1
    20     4     9    1
    21     9    11    1
    22    11    12    1
    23    12    13   ar
    24    13    14   ar
    25    14    17    1
    26    17    18   ar
    27    18    19   ar
    28    19    20   ar
    29    20    21   ar
    30    14    15   ar
    31    15    16   ar
    32     4     5    1
    33     5     6    1
    34     4     7    1
    35     7     8    1
    36    34    24   ar
    37     6     1    1
    38    33    27   ar
    39     8     1    1
    40    36    32    1
    41    16    12   ar
    42    21    17   ar
    43    37    38    1
    44     9    10    1
