@<TRIPOS>MOLECULE
*****
 31 34 0 0 0
SMALL
GASTEIGER

@<TRIPOS>ATOM
      1 C         143.1775  139.6258  159.4265 C.2     1  UNL1        0.2260
      2 O         144.3762  139.8151  158.5449 O.2     1  UNL1       -0.2748
      3 N         142.1673  138.5656  159.1014 N.am    1  UNL1       -0.2839
      4 H         141.3806  138.4413  159.6801 H       1  UNL1        0.1549
      5 C         142.3558  137.6949  157.8946 C.ar    1  UNL1        0.0504
      6 C         142.1889  138.2719  156.5201 C.ar    1  UNL1        0.0155
      7 C         142.3774  137.4012  155.3133 C.ar    1  UNL1        0.0127
      8 C         142.7328  135.9535  155.4811 C.ar    1  UNL1        0.0592
      9 CL        142.9212  135.0828  154.2743 Cl      1  UNL1       -0.0822
     10 C         142.8996  135.3766  156.8556 C.ar    1  UNL1        0.0295
     11 C         142.7111  136.2473  158.0624 C.ar    1  UNL1        0.0170
     12 C         143.2549  133.9290  157.0233 C.ar    1  UNL1        0.0822
     13 C         144.5231  133.5446  157.7260 C.ar    1  UNL1        0.0192
     14 C         144.8784  132.0969  157.8937 C.ar    1  UNL1        0.0031
     15 C         143.9655  131.0337  157.3587 C.ar    1  UNL1        0.0207
     16 C         142.6973  131.4182  156.6560 C.ar    1  UNL1        0.0988
     17 N         142.3420  132.8658  156.4883 N.ar    1  UNL1       -0.2438
     18 C         142.9891  140.4965  160.6333 C.3     1  UNL1        0.0823
     19 C         142.6162  141.9398  160.4659 C.3     1  UNL1        0.0100
     20 C         138.3139  138.0877  161.8943 C.3     1  UNL1        0.0521
     21 C         139.6209  138.2605  162.6097 C.ar    1  UNL1        0.0589
     22 C         139.8053  137.6880  163.9838 C.ar    1  UNL1        0.0144
     23 C         141.1124  137.8608  164.6991 C.ar    1  UNL1       -0.0019
     24 C         142.2351  138.6061  164.0403 C.ar    1  UNL1       -0.0089
     25 C         142.0507  139.1786  162.6662 C.ar    1  UNL1        0.0547
     26 N         140.7436  139.0058  161.9509 N.ar    1  UNL1       -0.2543
     27 C         143.1734  139.9240  162.0074 C.3     1  UNL1        0.0485
     28 C         144.4805  140.0968  162.7227 C.3     1  UNL1        0.0067
     29 C         144.6648  139.5242  164.0969 C.3     1  UNL1        0.0048
     30 C         143.5421  138.7789  164.7557 C.3     1  UNL1        0.0235
     31 C         143.7265  138.2064  166.1298 C.3     1  UNL1        0.0047
@<TRIPOS>BOND
     1    20    21    1
     2    21    22   ar
     3    22    23   ar
     4    23    24   ar
     5    24    25   ar
     6    25    26   ar
     7    25    27    1
     8    27    18    1
     9    18    19    1
    10    18     1    1
    11     1     2    2
    12     1     3   am
    13     3     5    1
    14     5     6   ar
    15     6     7   ar
    16     7     8   ar
    17     8     9    1
    18     8    10   ar
    19    10    12    1
    20    12    13   ar
    21    13    14   ar
    22    14    15   ar
    23    15    16   ar
    24    16    17   ar
    25    10    11   ar
    26    27    28    1
    27    28    29    1
    28    29    30    1
    29    30    31    1
    30    26    21   ar
    31    11     5   ar
    32    30    24    1
    33    17    12   ar
    34     3     4    1
@<TRIPOS>MOLECULE
*****
 31 34 0 0 0
SMALL
GASTEIGER

@<TRIPOS>ATOM
      1 C         139.2961  139.7270  162.9730 C.2     1  UNL1        0.2260
      2 O         138.2690  140.7733  163.2898 O.2     1  UNL1       -0.2748
      3 N         139.9456  138.9535  164.0821 N.am    1  UNL1       -0.2839
      4 H         140.6197  138.2667  163.8741 H       1  UNL1        0.1549
      5 C         139.5680  139.2264  165.5079 C.ar    1  UNL1        0.0504
      6 C         138.3167  138.6288  166.0799 C.ar    1  UNL1        0.0155
      7 C         137.9392  138.9017  167.5058 C.ar    1  UNL1        0.0127
      8 C         138.8129  139.7722  168.3595 C.ar    1  UNL1        0.0592
      9 CL        138.4354  140.0451  169.7854 Cl      1  UNL1       -0.0822
     10 C         140.0642  140.3697  167.7875 C.ar    1  UNL1        0.0295
     11 C         140.4417  140.0968  166.3616 C.ar    1  UNL1        0.0170
     12 C         140.9379  141.2401  168.6412 C.ar    1  UNL1        0.0822
     13 C         140.4767  142.6132  169.0310 C.ar    1  UNL1        0.0192
     14 C         141.3505  143.4837  169.8848 C.ar    1  UNL1        0.0031
     15 C         142.6854  142.9810  170.3488 C.ar    1  UNL1        0.0207
     16 C         143.1465  141.6079  169.9591 C.ar    1  UNL1        0.0988
     17 N         142.2728  140.7375  169.1053 N.ar    1  UNL1       -0.2438
     18 C         139.6736  139.4541  161.5472 C.3     1  UNL1        0.0823
     19 C         139.1709  138.2182  160.8616 C.3     1  UNL1        0.0100
     20 C         144.4311  139.4188  164.1191 C.3     1  UNL1        0.0521
     21 C         143.9019  140.1498  162.9210 C.ar    1  UNL1        0.0589
     22 C         144.7821  141.1127  162.1807 C.ar    1  UNL1        0.0144
     23 C         144.2530  141.8437  160.9826 C.ar    1  UNL1       -0.0019
     24 C         142.8435  141.6118  160.5246 C.ar    1  UNL1       -0.0089
     25 C         141.9633  140.6489  161.2649 C.ar    1  UNL1        0.0547
     26 N         142.4925  139.9179  162.4630 N.ar    1  UNL1       -0.2543
     27 C         140.5538  140.4170  160.8069 C.3     1  UNL1        0.0485
     28 C         140.0246  141.1480  159.6088 C.3     1  UNL1        0.0067
     29 C         140.9050  142.1109  158.8685 C.3     1  UNL1        0.0048
     30 C         142.3144  142.3428  159.3265 C.3     1  UNL1        0.0235
     31 C         143.1946  143.3057  158.5862 C.3     1  UNL1        0.0047
@<TRIPOS>BOND
     1    20    21    1
     2    21    22   ar
     3    22    23   ar
     4    23    24   ar
     5    24    25   ar
     6    25    26   ar
     7    25    27    1
     8    27    18    1
     9    18    19    1
    10    18     1    1
    11     1     2    2
    12     1     3   am
    13     3     5    1
    14     5     6   ar
    15     6     7   ar
    16     7     8   ar
    17     8     9    1
    18     8    10   ar
    19    10    12    1
    20    12    13   ar
    21    13    14   ar
    22    14    15   ar
    23    15    16   ar
    24    16    17   ar
    25    10    11   ar
    26    27    28    1
    27    28    29    1
    28    29    30    1
    29    30    31    1
    30    26    21   ar
    31    11     5   ar
    32    30    24    1
    33    17    12   ar
    34     3     4    1
@<TRIPOS>MOLECULE
*****
 31 34 0 0 0
SMALL
GASTEIGER

@<TRIPOS>ATOM
      1 C         143.4046  140.8120  164.1965 C.2     1  UNL1        0.2260
      2 O         144.3568  141.9704  164.1633 O.2     1  UNL1       -0.2748
      3 N         142.4765  140.5707  163.0430 N.am    1  UNL1       -0.2839
      4 H         141.8515  139.8103  163.0647 H       1  UNL1        0.1549
      5 C         142.5007  141.4879  161.8563 C.ar    1  UNL1        0.0504
      6 C         141.6346  142.7125  161.8371 C.ar    1  UNL1        0.0155
      7 C         141.6589  143.6297  160.6505 C.ar    1  UNL1        0.0127
      8 C         142.5492  143.3223  159.4830 C.ar    1  UNL1        0.0592
      9 CL        142.5734  144.2395  158.2964 Cl      1  UNL1       -0.0822
     10 C         143.4153  142.0977  159.5022 C.ar    1  UNL1        0.0295
     11 C         143.3910  141.1805  160.6889 C.ar    1  UNL1        0.0170
     12 C         144.3056  141.7904  158.3348 C.ar    1  UNL1        0.0822
     13 C         143.9681  140.6569  157.4123 C.ar    1  UNL1        0.0192
     14 C         144.8585  140.3496  156.2448 C.ar    1  UNL1        0.0031
     15 C         146.0862  141.1758  156.0000 C.ar    1  UNL1        0.0207
     16 C         146.4236  142.3094  156.9226 C.ar    1  UNL1        0.0988
     17 N         145.5333  142.6167  158.0900 N.ar    1  UNL1       -0.2438
     18 C         143.3804  139.8948  165.3831 C.3     1  UNL1        0.0823
     19 C         144.3802  138.7818  165.4913 C.3     1  UNL1        0.0100
     20 C         138.8208  137.6369  163.5496 C.3     1  UNL1        0.0521
     21 C         139.1926  138.3482  164.8168 C.ar    1  UNL1        0.0589
     22 C         138.1686  138.5439  165.8952 C.ar    1  UNL1        0.0144
     23 C         138.5405  139.2551  167.1624 C.ar    1  UNL1       -0.0019
     24 C         139.9364  139.7707  167.3512 C.ar    1  UNL1       -0.0089
     25 C         140.9604  139.5749  166.2728 C.ar    1  UNL1        0.0547
     26 N         140.5885  138.8637  165.0056 N.ar    1  UNL1       -0.2543
     27 C         142.3563  140.0905  166.4615 C.3     1  UNL1        0.0485
     28 C         142.7282  140.8017  167.7288 C.3     1  UNL1        0.0067
     29 C         141.7041  140.9974  168.8072 C.3     1  UNL1        0.0048
     30 C         140.3082  140.4819  168.6184 C.3     1  UNL1        0.0235
     31 C         139.2842  140.6776  169.6968 C.3     1  UNL1        0.0047
@<TRIPOS>BOND
     1    20    21    1
     2    21    22   ar
     3    22    23   ar
     4    23    24   ar
     5    24    25   ar
     6    25    26   ar
     7    25    27    1
     8    27    18    1
     9    18    19    1
    10    18     1    1
    11     1     2    2
    12     1     3   am
    13     3     5    1
    14     5     6   ar
    15     6     7   ar
    16     7     8   ar
    17     8     9    1
    18     8    10   ar
    19    10    12    1
    20    12    13   ar
    21    13    14   ar
    22    14    15   ar
    23    15    16   ar
    24    16    17   ar
    25    10    11   ar
    26    27    28    1
    27    28    29    1
    28    29    30    1
    29    30    31    1
    30    26    21   ar
    31    11     5   ar
    32    30    24    1
    33    17    12   ar
    34     3     4    1
@<TRIPOS>MOLECULE
*****
 31 34 0 0 0
SMALL
GASTEIGER

@<TRIPOS>ATOM
      1 C         138.5704  140.2822  164.9757 C.2     1  UNL1        0.2260
      2 O         137.8846  141.5997  164.7662 O.2     1  UNL1       -0.2748
      3 N         139.0113  139.4699  163.7942 N.am    1  UNL1       -0.2839
      4 H         139.4614  138.6052  163.9317 H       1  UNL1        0.1549
      5 C         138.7664  139.9751  162.4032 C.ar    1  UNL1        0.0504
      6 C         137.7576  139.2957  161.5253 C.ar    1  UNL1        0.0155
      7 C         137.5127  139.8009  160.1343 C.ar    1  UNL1        0.0127
      8 C         138.2766  140.9856  159.6213 C.ar    1  UNL1        0.0592
      9 CL        138.0316  141.4908  158.2304 Cl      1  UNL1       -0.0822
     10 C         139.2853  141.6650  160.4993 C.ar    1  UNL1        0.0295
     11 C         139.5302  141.1597  161.8902 C.ar    1  UNL1        0.0170
     12 C         140.0491  142.8496  159.9863 C.ar    1  UNL1        0.0822
     13 C         141.3163  142.6460  159.2099 C.ar    1  UNL1        0.0192
     14 C         142.0801  143.8307  158.6969 C.ar    1  UNL1        0.0031
     15 C         141.5768  145.2189  158.9603 C.ar    1  UNL1        0.0207
     16 C         140.3096  145.4225  159.7367 C.ar    1  UNL1        0.0988
     17 N         139.5458  144.2379  160.2497 N.ar    1  UNL1       -0.2438
     18 C         138.8153  139.7770  166.3666 C.3     1  UNL1        0.0823
     19 C         138.0667  138.5794  166.8723 C.3     1  UNL1        0.0100
     20 C         142.8055  141.4502  163.1219 C.3     1  UNL1        0.0521
     21 C         142.5531  141.5510  164.5971 C.ar    1  UNL1        0.0589
     22 C         143.5466  142.2432  165.4824 C.ar    1  UNL1        0.0144
     23 C         143.2942  142.3441  166.9575 C.ar    1  UNL1       -0.0019
     24 C         142.0483  141.7527  167.5474 C.ar    1  UNL1       -0.0089
     25 C         141.0548  141.0605  166.6621 C.ar    1  UNL1        0.0547
     26 N         141.3072  140.9597  165.1869 N.ar    1  UNL1       -0.2543
     27 C         139.8088  140.4692  167.2519 C.3     1  UNL1        0.0485
     28 C         139.5564  140.5700  168.7271 C.3     1  UNL1        0.0067
     29 C         140.5499  141.2623  169.6124 C.3     1  UNL1        0.0048
     30 C         141.7958  141.8536  169.0225 C.3     1  UNL1        0.0235
     31 C         142.7893  142.5458  169.9078 C.3     1  UNL1        0.0047
@<TRIPOS>BOND
     1    20    21    1
     2    21    22   ar
     3    22    23   ar
     4    23    24   ar
     5    24    25   ar
     6    25    26   ar
     7    25    27    1
     8    27    18    1
     9    18    19    1
    10    18     1    1
    11     1     2    2
    12     1     3   am
    13     3     5    1
    14     5     6   ar
    15     6     7   ar
    16     7     8   ar
    17     8     9    1
    18     8    10   ar
    19    10    12    1
    20    12    13   ar
    21    13    14   ar
    22    14    15   ar
    23    15    16   ar
    24    16    17   ar
    25    10    11   ar
    26    27    28    1
    27    28    29    1
    28    29    30    1
    29    30    31    1
    30    26    21   ar
    31    11     5   ar
    32    30    24    1
    33    17    12   ar
    34     3     4    1
@<TRIPOS>MOLECULE
*****
 31 34 0 0 0
SMALL
GASTEIGER

@<TRIPOS>ATOM
      1 C         139.3121  140.2829  162.2064 C.2     1  UNL1        0.2260
      2 O         138.4861  139.4303  163.1233 O.2     1  UNL1       -0.2748
      3 N         140.6898  140.7103  162.6178 N.am    1  UNL1       -0.2839
      4 H         141.2319  141.2699  162.0160 H       1  UNL1        0.1549
      5 C         141.2415  140.2851  163.9463 C.ar    1  UNL1        0.0504
      6 C         142.3104  139.2348  164.0131 C.ar    1  UNL1        0.0155
      7 C         142.8621  138.8096  165.3415 C.ar    1  UNL1        0.0127
      8 C         142.3449  139.4347  166.6032 C.ar    1  UNL1        0.0592
      9 CL        142.8966  139.0094  167.9317 Cl      1  UNL1       -0.0822
     10 C         141.2760  140.4849  166.5364 C.ar    1  UNL1        0.0295
     11 C         140.7243  140.9101  165.2080 C.ar    1  UNL1        0.0170
     12 C         140.7588  141.1098  167.7981 C.ar    1  UNL1        0.0822
     13 C         141.1278  142.5227  168.1412 C.ar    1  UNL1        0.0192
     14 C         140.6106  143.1476  169.4030 C.ar    1  UNL1        0.0031
     15 C         139.7244  142.3598  170.3215 C.ar    1  UNL1        0.0207
     16 C         139.3553  140.9469  169.9785 C.ar    1  UNL1        0.0988
     17 N         139.8725  140.3220  168.7168 N.ar    1  UNL1       -0.2438
     18 C         138.7604  140.7081  160.8779 C.3     1  UNL1        0.0823
     19 C         137.6247  139.9479  160.2593 C.3     1  UNL1        0.0100
     20 C         138.7689  144.7525  164.4685 C.3     1  UNL1        0.0521
     21 C         139.2047  144.6304  163.0384 C.ar    1  UNL1        0.0589
     22 C         139.7885  145.8157  162.3285 C.ar    1  UNL1        0.0144
     23 C         140.2243  145.6937  160.8984 C.ar    1  UNL1       -0.0019
     24 C         140.0762  144.3863  160.1782 C.ar    1  UNL1       -0.0089
     25 C         139.4924  143.2009  160.8881 C.ar    1  UNL1        0.0547
     26 N         139.0566  143.3230  162.3182 N.ar    1  UNL1       -0.2543
     27 C         139.3442  141.8934  160.1680 C.3     1  UNL1        0.0485
     28 C         139.7800  141.7714  158.7379 C.3     1  UNL1        0.0067
     29 C         140.3639  142.9568  158.0280 C.3     1  UNL1        0.0048
     30 C         140.5120  144.2642  158.7481 C.3     1  UNL1        0.0235
     31 C         141.0959  145.4495  158.0382 C.3     1  UNL1        0.0047
@<TRIPOS>BOND
     1    20    21    1
     2    21    22   ar
     3    22    23   ar
     4    23    24   ar
     5    24    25   ar
     6    25    26   ar
     7    25    27    1
     8    27    18    1
     9    18    19    1
    10    18     1    1
    11     1     2    2
    12     1     3   am
    13     3     5    1
    14     5     6   ar
    15     6     7   ar
    16     7     8   ar
    17     8     9    1
    18     8    10   ar
    19    10    12    1
    20    12    13   ar
    21    13    14   ar
    22    14    15   ar
    23    15    16   ar
    24    16    17   ar
    25    10    11   ar
    26    27    28    1
    27    28    29    1
    28    29    30    1
    29    30    31    1
    30    26    21   ar
    31    11     5   ar
    32    30    24    1
    33    17    12   ar
    34     3     4    1
@<TRIPOS>MOLECULE
*****
 31 34 0 0 0
SMALL
GASTEIGER

@<TRIPOS>ATOM
      1 C         139.8750  143.9255  163.1478 C.2     1  UNL1        0.2260
      2 O         139.0908  144.5114  164.2844 O.2     1  UNL1       -0.2748
      3 N         140.1668  142.4544  163.1176 N.am    1  UNL1       -0.2839
      4 H         140.6815  142.0699  162.3717 H       1  UNL1        0.1549
      5 C         139.6743  141.5693  164.2240 C.ar    1  UNL1        0.0504
      6 C         138.4914  140.6748  163.9987 C.ar    1  UNL1        0.0155
      7 C         137.9989  139.7897  165.1050 C.ar    1  UNL1        0.0127
      8 C         138.6894  139.7990  166.4367 C.ar    1  UNL1        0.0592
      9 CL        138.1969  138.9139  167.5430 Cl      1  UNL1       -0.0822
     10 C         139.8722  140.6935  166.6620 C.ar    1  UNL1        0.0295
     11 C         140.3647  141.5786  165.5556 C.ar    1  UNL1        0.0170
     12 C         140.5626  140.7028  167.9936 C.ar    1  UNL1        0.0822
     13 C         141.7929  139.8715  168.2064 C.ar    1  UNL1        0.0192
     14 C         142.4833  139.8809  169.5381 C.ar    1  UNL1        0.0031
     15 C         141.9433  140.7215  170.6569 C.ar    1  UNL1        0.0207
     16 C         140.7130  141.5528  170.4441 C.ar    1  UNL1        0.0988
     17 N         140.0226  141.5435  169.1125 N.ar    1  UNL1       -0.2438
     18 C         140.3675  144.8106  162.0415 C.3     1  UNL1        0.0823
     19 C         139.9047  146.2351  161.9583 C.3     1  UNL1        0.0100
     20 C         144.5808  142.8511  164.8088 C.3     1  UNL1        0.0521
     21 C         144.2439  142.9366  163.3496 C.ar    1  UNL1        0.0589
     22 C         145.1990  142.3973  162.3265 C.ar    1  UNL1        0.0144
     23 C         144.8621  142.4827  160.8674 C.ar    1  UNL1       -0.0019
     24 C         143.5700  143.1074  160.4313 C.ar    1  UNL1       -0.0089
     25 C         142.6148  143.6467  161.4544 C.ar    1  UNL1        0.0547
     26 N         142.9518  143.5612  162.9136 N.ar    1  UNL1       -0.2543
     27 C         141.3226  144.2714  161.0184 C.3     1  UNL1        0.0485
     28 C         140.9857  144.3568  159.5592 C.3     1  UNL1        0.0067
     29 C         141.9410  143.8175  158.5361 C.3     1  UNL1        0.0048
     30 C         143.2331  143.1928  158.9721 C.3     1  UNL1        0.0235
     31 C         144.1882  142.6536  157.9490 C.3     1  UNL1        0.0047
@<TRIPOS>BOND
     1    20    21    1
     2    21    22   ar
     3    22    23   ar
     4    23    24   ar
     5    24    25   ar
     6    25    26   ar
     7    25    27    1
     8    27    18    1
     9    18    19    1
    10    18     1    1
    11     1     2    2
    12     1     3   am
    13     3     5    1
    14     5     6   ar
    15     6     7   ar
    16     7     8   ar
    17     8     9    1
    18     8    10   ar
    19    10    12    1
    20    12    13   ar
    21    13    14   ar
    22    14    15   ar
    23    15    16   ar
    24    16    17   ar
    25    10    11   ar
    26    27    28    1
    27    28    29    1
    28    29    30    1
    29    30    31    1
    30    26    21   ar
    31    11     5   ar
    32    30    24    1
    33    17    12   ar
    34     3     4    1
@<TRIPOS>MOLECULE
*****
 31 34 0 0 0
SMALL
GASTEIGER

@<TRIPOS>ATOM
      1 C         140.2052  139.0598  163.0816 C.2     1  UNL1        0.2260
      2 O         140.8707  137.9548  163.8471 O.2     1  UNL1       -0.2748
      3 N         139.3968  140.0940  163.8076 N.am    1  UNL1       -0.2839
      4 H         138.9600  140.8192  163.3052 H       1  UNL1        0.1549
      5 C         139.2540  140.0231  165.2991 C.ar    1  UNL1        0.0504
      6 C         138.1765  139.1770  165.9100 C.ar    1  UNL1        0.0155
      7 C         138.0337  139.1061  167.4015 C.ar    1  UNL1        0.0127
      8 C         138.9684  139.8814  168.2821 C.ar    1  UNL1        0.0592
      9 CL        138.8256  139.8105  169.7736 Cl      1  UNL1       -0.0822
     10 C         140.0458  140.7274  167.6712 C.ar    1  UNL1        0.0295
     11 C         140.1886  140.7983  166.1797 C.ar    1  UNL1        0.0170
     12 C         140.9805  141.5026  168.5518 C.ar    1  UNL1        0.0822
     13 C         140.5438  142.8111  169.1410 C.ar    1  UNL1        0.0192
     14 C         141.4785  143.5863  170.0216 C.ar    1  UNL1        0.0031
     15 C         142.8498  143.0530  170.3130 C.ar    1  UNL1        0.0207
     16 C         143.2865  141.7445  169.7239 C.ar    1  UNL1        0.0988
     17 N         142.3519  140.9693  168.8433 N.ar    1  UNL1       -0.2438
     18 C         140.3480  139.1306  161.5901 C.3     1  UNL1        0.0823
     19 C         139.4102  138.3593  160.7094 C.3     1  UNL1        0.0100
     20 C         138.8922  144.2726  162.4210 C.3     1  UNL1        0.0521
     21 C         140.0665  143.6188  161.7552 C.ar    1  UNL1        0.0589
     22 C         141.1471  144.4610  161.1444 C.ar    1  UNL1        0.0144
     23 C         142.3214  143.8071  160.4786 C.ar    1  UNL1       -0.0019
     24 C         142.4153  142.3111  160.4235 C.ar    1  UNL1       -0.0089
     25 C         141.3347  141.4689  161.0343 C.ar    1  UNL1        0.0547
     26 N         140.1604  142.1228  161.7002 N.ar    1  UNL1       -0.2543
     27 C         141.4285  139.9728  160.9793 C.3     1  UNL1        0.0485
     28 C         142.6029  139.3190  160.3134 C.3     1  UNL1        0.0067
     29 C         143.6835  140.1613  159.7026 C.3     1  UNL1        0.0048
     30 C         143.5897  141.6573  159.7577 C.3     1  UNL1        0.0235
     31 C         144.6702  142.4995  159.1469 C.3     1  UNL1        0.0047
@<TRIPOS>BOND
     1    20    21    1
     2    21    22   ar
     3    22    23   ar
     4    23    24   ar
     5    24    25   ar
     6    25    26   ar
     7    25    27    1
     8    27    18    1
     9    18    19    1
    10    18     1    1
    11     1     2    2
    12     1     3   am
    13     3     5    1
    14     5     6   ar
    15     6     7   ar
    16     7     8   ar
    17     8     9    1
    18     8    10   ar
    19    10    12    1
    20    12    13   ar
    21    13    14   ar
    22    14    15   ar
    23    15    16   ar
    24    16    17   ar
    25    10    11   ar
    26    27    28    1
    27    28    29    1
    28    29    30    1
    29    30    31    1
    30    26    21   ar
    31    11     5   ar
    32    30    24    1
    33    17    12   ar
    34     3     4    1
@<TRIPOS>MOLECULE
*****
 31 34 0 0 0
SMALL
GASTEIGER

@<TRIPOS>ATOM
      1 C         141.3218  138.7423  162.5755 C.2     1  UNL1        0.2260
      2 O         140.1071  139.2098  161.8301 O.2     1  UNL1       -0.2748
      3 N         142.6394  138.6303  161.8673 N.am    1  UNL1       -0.2839
      4 H         143.4367  138.3234  162.3565 H       1  UNL1        0.1549
      5 C         142.7421  138.9857  160.4136 C.ar    1  UNL1        0.0504
      6 C         142.9492  140.4137  160.0035 C.ar    1  UNL1        0.0155
      7 C         143.0519  140.7692  158.5499 C.ar    1  UNL1        0.0127
      8 C         142.9476  139.6967  157.5063 C.ar    1  UNL1        0.0592
      9 CL        143.0503  140.0521  156.0527 Cl      1  UNL1       -0.0822
     10 C         142.7405  138.2688  157.9164 C.ar    1  UNL1        0.0295
     11 C         142.6378  137.9133  159.3701 C.ar    1  UNL1        0.0170
     12 C         142.6362  137.1964  156.8729 C.ar    1  UNL1        0.0822
     13 C         141.2881  136.7328  156.4060 C.ar    1  UNL1        0.0192
     14 C         141.1838  135.6603  155.3624 C.ar    1  UNL1        0.0031
     15 C         142.4275  135.0515  154.7858 C.ar    1  UNL1        0.0207
     16 C         143.7755  135.5151  155.2527 C.ar    1  UNL1        0.0988
     17 N         143.8799  136.5875  156.2962 N.ar    1  UNL1       -0.2438
     18 C         141.2191  138.3869  164.0291 C.3     1  UNL1        0.0823
     19 C         141.2587  136.9489  164.4542 C.3     1  UNL1        0.0100
     20 C         145.5568  141.5681  163.4687 C.3     1  UNL1        0.0521
     21 C         144.3657  141.5847  164.3802 C.ar    1  UNL1        0.0589
     22 C         144.2234  142.6671  165.4088 C.ar    1  UNL1        0.0144
     23 C         143.0322  142.6837  166.3203 C.ar    1  UNL1       -0.0019
     24 C         141.9834  141.6178  166.2033 C.ar    1  UNL1       -0.0089
     25 C         142.1257  140.5353  165.1748 C.ar    1  UNL1        0.0547
     26 N         143.3168  140.5188  164.2632 N.ar    1  UNL1       -0.2543
     27 C         141.0768  139.4693  165.0577 C.3     1  UNL1        0.0485
     28 C         139.8857  139.4859  165.9692 C.3     1  UNL1        0.0067
     29 C         139.7434  140.5685  166.9978 C.3     1  UNL1        0.0048
     30 C         140.7922  141.6344  167.1148 C.3     1  UNL1        0.0235
     31 C         140.6499  142.7168  168.1434 C.3     1  UNL1        0.0047
@<TRIPOS>BOND
     1    20    21    1
     2    21    22   ar
     3    22    23   ar
     4    23    24   ar
     5    24    25   ar
     6    25    26   ar
     7    25    27    1
     8    27    18    1
     9    18    19    1
    10    18     1    1
    11     1     2    2
    12     1     3   am
    13     3     5    1
    14     5     6   ar
    15     6     7   ar
    16     7     8   ar
    17     8     9    1
    18     8    10   ar
    19    10    12    1
    20    12    13   ar
    21    13    14   ar
    22    14    15   ar
    23    15    16   ar
    24    16    17   ar
    25    10    11   ar
    26    27    28    1
    27    28    29    1
    28    29    30    1
    29    30    31    1
    30    26    21   ar
    31    11     5   ar
    32    30    24    1
    33    17    12   ar
    34     3     4    1
@<TRIPOS>MOLECULE
*****
 31 34 0 0 0
SMALL
GASTEIGER

@<TRIPOS>ATOM
      1 C         138.6237  141.2932  162.9564 C.2     1  UNL1        0.2260
      2 O         137.6750  140.1490  162.7547 O.2     1  UNL1       -0.2748
      3 N         139.5183  141.7324  161.8352 N.am    1  UNL1       -0.2839
      4 H         140.1410  142.4833  161.9676 H       1  UNL1        0.1549
      5 C         139.4640  141.0273  160.5124 C.ar    1  UNL1        0.0504
      6 C         140.4138  139.9030  160.2222 C.ar    1  UNL1        0.0155
      7 C         140.3595  139.1979  158.8994 C.ar    1  UNL1        0.0127
      8 C         139.3555  139.6171  157.8667 C.ar    1  UNL1        0.0592
      9 CL        139.3013  138.9120  156.5438 Cl      1  UNL1       -0.0822
     10 C         138.4058  140.7413  158.1569 C.ar    1  UNL1        0.0295
     11 C         138.4601  141.4464  159.4797 C.ar    1  UNL1        0.0170
     12 C         137.4019  141.1604  157.1242 C.ar    1  UNL1        0.0822
     13 C         137.6750  142.3498  156.2520 C.ar    1  UNL1        0.0192
     14 C         136.6710  142.7689  155.2193 C.ar    1  UNL1        0.0031
     15 C         135.3940  141.9986  155.0589 C.ar    1  UNL1        0.0207
     16 C         135.1208  140.8092  155.9311 C.ar    1  UNL1        0.0988
     17 N         136.1248  140.3901  156.9637 N.ar    1  UNL1       -0.2438
     18 C         138.6780  141.9983  164.2793 C.3     1  UNL1        0.0823
     19 C         137.7517  143.1451  164.5564 C.3     1  UNL1        0.0100
     20 C         143.2434  144.7285  163.3034 C.3     1  UNL1        0.0521
     21 C         142.8374  143.7147  164.3316 C.ar    1  UNL1        0.0589
     22 C         143.8179  143.2729  165.3773 C.ar    1  UNL1        0.0144
     23 C         143.4119  142.2591  166.4055 C.ar    1  UNL1       -0.0019
     24 C         142.0255  141.6869  166.3881 C.ar    1  UNL1       -0.0089
     25 C         141.0450  142.1287  165.3424 C.ar    1  UNL1        0.0547
     26 N         141.4510  143.1425  164.3142 N.ar    1  UNL1       -0.2543
     27 C         139.6585  141.5565  165.3249 C.3     1  UNL1        0.0485
     28 C         139.2525  140.5427  166.3532 C.3     1  UNL1        0.0067
     29 C         140.2330  140.1009  167.3989 C.3     1  UNL1        0.0048
     30 C         141.6195  140.6731  167.4163 C.3     1  UNL1        0.0235
     31 C         142.6000  140.2313  168.4620 C.3     1  UNL1        0.0047
@<TRIPOS>BOND
     1    20    21    1
     2    21    22   ar
     3    22    23   ar
     4    23    24   ar
     5    24    25   ar
     6    25    26   ar
     7    25    27    1
     8    27    18    1
     9    18    19    1
    10    18     1    1
    11     1     2    2
    12     1     3   am
    13     3     5    1
    14     5     6   ar
    15     6     7   ar
    16     7     8   ar
    17     8     9    1
    18     8    10   ar
    19    10    12    1
    20    12    13   ar
    21    13    14   ar
    22    14    15   ar
    23    15    16   ar
    24    16    17   ar
    25    10    11   ar
    26    27    28    1
    27    28    29    1
    28    29    30    1
    29    30    31    1
    30    26    21   ar
    31    11     5   ar
    32    30    24    1
    33    17    12   ar
    34     3     4    1
