@<TRIPOS>MOLECULE
*****
 37 40 0 0 0
SMALL
GASTEIGER

@<TRIPOS>ATOM
      1 C         144.0941  141.5449  162.1668 C.ar    1  UNL1        0.1417
      2 C         143.7944  140.6555  163.3368 C.ar    1  UNL1        0.0744
      3 C         143.3695  139.2350  163.1097 C.ar    1  UNL1        0.1504
      4 C         143.2444  138.7039  161.7125 C.ar    1  UNL1        0.0423
      5 C         143.5441  139.5933  160.5424 C.ar    1  UNL1        0.0597
      6 C         143.9689  141.0138  160.7696 C.ar    1  UNL1        0.0416
      7 C         143.4189  139.0622  159.1451 C.2     1  UNL1        0.2508
      8 O         144.0997  139.7687  158.0105 O.2     1  UNL1       -0.2698
      9 N         142.6129  137.8248  158.8825 N.am    1  UNL1       -0.2646
     10 H         142.1661  137.3611  159.6272 H       1  UNL1        0.1566
     11 C         142.4878  137.2937  157.4852 C.ar    1  UNL1        0.1538
     12 C         141.3500  137.7363  156.6137 C.ar    1  UNL1        0.1328
     13 N         141.2249  137.2052  155.2165 N.ar    1  UNL1       -0.2436
     14 C         142.2375  136.2315  154.6908 C.ar    1  UNL1        0.0786
     15 C         142.1124  135.7005  153.2935 C.3     1  UNL1        0.0538
     16 C         143.3753  135.7889  155.5622 C.ar    1  UNL1        0.1150
     17 N         143.5004  136.3200  156.9594 N.ar    1  UNL1       -0.2262
     18 O         144.5189  142.9654  162.3940 O.3     1  UNL1       -0.4765
     19 C         143.5070  143.9949  162.8016 C.3     1  UNL1        0.1954
     20 C         143.7556  144.8557  164.0046 C.3     1  UNL1        0.0500
     21 C         142.2464  144.1635  162.0062 C.3     1  UNL1        0.1855
     22 C         141.9974  143.6480  159.4719 C.3     1  UNL1        0.1743
     23 O         142.3161  144.6117  160.5764 O.3     1  UNL1       -0.3473
     24 O         143.0698  138.3455  164.2798 O.3     1  UNL1       -0.4352
     25 C         142.3315  138.8905  165.4664 C.ar    1  UNL1        0.2403
     26 N         143.0858  139.2932  166.6989 N.ar    1  UNL1       -0.2090
     27 C         142.3474  139.8381  167.8854 C.ar    1  UNL1        0.1066
     28 C         140.8549  139.9804  167.8395 C.ar    1  UNL1        0.0738
     29 C         140.1007  139.5777  166.6070 C.ar    1  UNL1        0.0222
     30 C         140.8390  139.0327  165.4205 C.ar    1  UNL1        0.1112
     31 CL        140.0847  138.6300  164.1879 Cl      1  UNL1       -0.0774
     32 C         140.1165  140.5253  169.0260 C.2     1  UNL1        0.2506
     33 O         139.1984  139.6362  169.8112 O.2     1  UNL1       -0.2699
     34 N         140.2964  141.9594  169.4274 N.am    1  UNL1       -0.2759
     35 C         141.0998  143.1140  168.9063 C.3     1  UNL1        0.0955
     36 C         140.5507  143.9875  169.9951 C.3     1  UNL1        0.0430
     37 C         139.7473  142.8329  170.5162 C.3     1  UNL1        0.0955
@<TRIPOS>BOND
     1    22    23    1
     2    23    21    1
     3    21    19    1
     4    19    20    1
     5    19    18    1
     6    18     1    1
     7     1     2   ar
     8     2     3   ar
     9     3    24    1
    10    24    25    1
    11    25    26   ar
    12    26    27   ar
    13    27    28   ar
    14    28    32    1
    15    32    33    2
    16    32    34   am
    17    34    35    1
    18    35    36    1
    19    36    37    1
    20    28    29   ar
    21    29    30   ar
    22    30    31    1
    23     3     4   ar
    24     4     5   ar
    25     5     7    1
    26     7     8    2
    27     7     9   am
    28     9    11    1
    29    11    12   ar
    30    12    13   ar
    31    13    14   ar
    32    14    15    1
    33    14    16   ar
    34    16    17   ar
    35     5     6   ar
    36     6     1   ar
    37    30    25   ar
    38    17    11   ar
    39    37    34    1
    40     9    10    1
@<TRIPOS>MOLECULE
*****
 37 40 0 0 0
SMALL
GASTEIGER

@<TRIPOS>ATOM
      1 C         143.0164  143.2166  161.1663 C.ar    1  UNL1        0.1417
      2 C         142.6173  142.0363  162.0014 C.ar    1  UNL1        0.0744
      3 C         142.9282  140.6459  161.5321 C.ar    1  UNL1        0.1504
      4 C         143.6382  140.4359  160.2276 C.ar    1  UNL1        0.0423
      5 C         144.0373  141.6162  159.3925 C.ar    1  UNL1        0.0597
      6 C         143.7265  143.0065  159.8618 C.ar    1  UNL1        0.0416
      7 C         144.7474  141.4062  158.0879 C.2     1  UNL1        0.2508
      8 O         144.6621  140.0798  157.3927 O.2     1  UNL1       -0.2698
      9 N         145.5427  142.5225  157.4787 N.am    1  UNL1       -0.2646
     10 H         145.5987  143.3931  157.9350 H       1  UNL1        0.1566
     11 C         146.2528  142.3125  156.1742 C.ar    1  UNL1        0.1538
     12 C         147.7485  142.2039  156.1434 C.ar    1  UNL1        0.1328
     13 N         148.4585  141.9939  154.8389 N.ar    1  UNL1       -0.2436
     14 C         147.6727  141.8925  153.5652 C.ar    1  UNL1        0.0786
     15 C         148.3828  141.6825  152.2606 C.3     1  UNL1        0.0538
     16 C         146.1770  142.0011  153.5959 C.ar    1  UNL1        0.1150
     17 N         145.4671  142.2111  154.9004 N.ar    1  UNL1       -0.2262
     18 O         142.7056  144.6070  161.6356 O.3     1  UNL1       -0.4765
     19 C         142.4729  144.8720  163.0935 C.3     1  UNL1        0.1954
     20 C         143.6375  145.1185  164.0062 C.3     1  UNL1        0.0500
     21 C         141.0757  144.8904  163.6389 C.3     1  UNL1        0.1855
     22 C         139.8375  146.2666  161.8159 C.3     1  UNL1        0.1743
     23 O         139.9105  145.0647  162.7105 O.3     1  UNL1       -0.3473
     24 O         142.5290  139.4656  162.3673 O.3     1  UNL1       -0.4352
     25 C         141.8637  139.6770  163.6950 C.ar    1  UNL1        0.2403
     26 N         140.4105  140.0439  163.7559 N.ar    1  UNL1       -0.2090
     27 C         139.7453  140.2552  165.0836 C.ar    1  UNL1        0.1066
     28 C         140.5333  140.0997  166.3505 C.ar    1  UNL1        0.0738
     29 C         141.9865  139.7329  166.2896 C.ar    1  UNL1        0.0222
     30 C         142.6517  139.5215  164.9619 C.ar    1  UNL1        0.1112
     31 CL        144.1049  139.1546  164.9011 Cl      1  UNL1       -0.0774
     32 C         139.8681  140.3111  167.6782 C.2     1  UNL1        0.2506
     33 O         138.8382  139.3352  168.1649 O.2     1  UNL1       -0.2699
     34 N         140.2328  141.4985  168.5192 N.am    1  UNL1       -0.2759
     35 C         141.1827  142.6502  168.3732 C.3     1  UNL1        0.0955
     36 C         140.7485  143.1776  169.7086 C.3     1  UNL1        0.0430
     37 C         139.7986  142.0259  169.8546 C.3     1  UNL1        0.0955
@<TRIPOS>BOND
     1    22    23    1
     2    23    21    1
     3    21    19    1
     4    19    20    1
     5    19    18    1
     6    18     1    1
     7     1     2   ar
     8     2     3   ar
     9     3    24    1
    10    24    25    1
    11    25    26   ar
    12    26    27   ar
    13    27    28   ar
    14    28    32    1
    15    32    33    2
    16    32    34   am
    17    34    35    1
    18    35    36    1
    19    36    37    1
    20    28    29   ar
    21    29    30   ar
    22    30    31    1
    23     3     4   ar
    24     4     5   ar
    25     5     7    1
    26     7     8    2
    27     7     9   am
    28     9    11    1
    29    11    12   ar
    30    12    13   ar
    31    13    14   ar
    32    14    15    1
    33    14    16   ar
    34    16    17   ar
    35     5     6   ar
    36     6     1   ar
    37    30    25   ar
    38    17    11   ar
    39    37    34    1
    40     9    10    1
@<TRIPOS>MOLECULE
*****
 37 40 0 0 0
SMALL
GASTEIGER

@<TRIPOS>ATOM
      1 C         137.9265  141.5682  162.1159 C.ar    1  UNL1        0.1417
      2 C         138.2907  140.6105  163.2113 C.ar    1  UNL1        0.0744
      3 C         138.8758  139.2714  162.8730 C.ar    1  UNL1        0.1504
      4 C         139.0967  138.8900  161.4393 C.ar    1  UNL1        0.0423
      5 C         138.7326  139.8478  160.3438 C.ar    1  UNL1        0.0597
      6 C         138.1475  141.1869  160.6821 C.ar    1  UNL1        0.0416
      7 C         138.9535  139.4665  158.9100 C.2     1  UNL1        0.2508
      8 O         138.1782  140.1514  157.8238 O.2     1  UNL1       -0.2698
      9 N         139.9497  138.4003  158.5624 N.am    1  UNL1       -0.2646
     10 H         140.4585  137.9508  159.2753 H       1  UNL1        0.1566
     11 C         140.1706  138.0190  157.1286 C.ar    1  UNL1        0.1538
     12 C         141.4446  138.4055  156.4374 C.ar    1  UNL1        0.1328
     13 N         141.6654  138.0242  155.0037 N.ar    1  UNL1       -0.2436
     14 C         140.6124  137.2563  154.2610 C.ar    1  UNL1        0.0786
     15 C         140.8334  136.8750  152.8272 C.3     1  UNL1        0.0538
     16 C         139.3385  136.8698  154.9521 C.ar    1  UNL1        0.1150
     17 N         139.1176  137.2511  156.3859 N.ar    1  UNL1       -0.2262
     18 O         137.3414  142.9074  162.4542 O.3     1  UNL1       -0.4765
     19 C         138.1405  143.8952  163.2514 C.3     1  UNL1        0.1954
     20 C         137.8450  144.0975  164.7081 C.3     1  UNL1        0.0500
     21 C         139.2351  144.6808  162.5921 C.3     1  UNL1        0.1855
     22 C         140.4489  145.4531  160.4286 C.3     1  UNL1        0.1743
     23 O         139.2717  144.8078  161.0979 O.3     1  UNL1       -0.3473
     24 O         139.2399  138.3136  163.9686 O.3     1  UNL1       -0.4352
     25 C         139.9253  138.8142  165.2053 C.ar    1  UNL1        0.2403
     26 N         139.1128  139.3159  166.3622 N.ar    1  UNL1       -0.2090
     27 C         139.7982  139.8165  167.5990 C.ar    1  UNL1        0.1066
     28 C         141.2961  139.8155  167.6789 C.ar    1  UNL1        0.0738
     29 C         142.1085  139.3139  166.5221 C.ar    1  UNL1        0.0222
     30 C         141.4231  138.8133  165.2853 C.ar    1  UNL1        0.1112
     31 CL        142.2357  138.3116  164.1284 Cl      1  UNL1       -0.0774
     32 C         141.9815  140.3162  168.9156 C.2     1  UNL1        0.2506
     33 O         142.9435  139.4306  169.6506 O.2     1  UNL1       -0.2699
     34 N         141.7048  141.7025  169.4174 N.am    1  UNL1       -0.2759
     35 C         140.8367  142.8399  168.9673 C.3     1  UNL1        0.0955
     36 C         141.3137  143.6630  170.1270 C.3     1  UNL1        0.0430
     37 C         142.1818  142.5256  170.5772 C.3     1  UNL1        0.0955
@<TRIPOS>BOND
     1    22    23    1
     2    23    21    1
     3    21    19    1
     4    19    20    1
     5    19    18    1
     6    18     1    1
     7     1     2   ar
     8     2     3   ar
     9     3    24    1
    10    24    25    1
    11    25    26   ar
    12    26    27   ar
    13    27    28   ar
    14    28    32    1
    15    32    33    2
    16    32    34   am
    17    34    35    1
    18    35    36    1
    19    36    37    1
    20    28    29   ar
    21    29    30   ar
    22    30    31    1
    23     3     4   ar
    24     4     5   ar
    25     5     7    1
    26     7     8    2
    27     7     9   am
    28     9    11    1
    29    11    12   ar
    30    12    13   ar
    31    13    14   ar
    32    14    15    1
    33    14    16   ar
    34    16    17   ar
    35     5     6   ar
    36     6     1   ar
    37    30    25   ar
    38    17    11   ar
    39    37    34    1
    40     9    10    1
@<TRIPOS>MOLECULE
*****
 37 40 0 0 0
SMALL
GASTEIGER

@<TRIPOS>ATOM
      1 C         140.4361  142.1698  161.2227 C.ar    1  UNL1        0.1417
      2 C         140.3490  141.1312  162.3015 C.ar    1  UNL1        0.0744
      3 C         141.3424  140.0081  162.3432 C.ar    1  UNL1        0.1504
      4 C         142.4227  139.9234  161.3061 C.ar    1  UNL1        0.0423
      5 C         142.5098  140.9619  160.2274 C.ar    1  UNL1        0.0597
      6 C         141.5165  142.0851  160.1856 C.ar    1  UNL1        0.0416
      7 C         143.5902  140.8773  159.1902 C.2     1  UNL1        0.2508
      8 O         144.0855  139.5381  158.7307 O.2     1  UNL1       -0.2698
      9 N         144.1753  142.1319  158.6126 N.am    1  UNL1       -0.2646
     10 H         143.8503  143.0109  158.9142 H       1  UNL1        0.1566
     11 C         145.2558  142.0473  157.5755 C.ar    1  UNL1        0.1538
     12 C         146.5482  142.7812  157.7773 C.ar    1  UNL1        0.1328
     13 N         147.6286  142.6966  156.7402 N.ar    1  UNL1       -0.2436
     14 C         147.4165  141.8780  155.5013 C.ar    1  UNL1        0.0786
     15 C         148.4969  141.7934  154.4641 C.3     1  UNL1        0.0538
     16 C         146.1240  141.1440  155.2995 C.ar    1  UNL1        0.1150
     17 N         145.0436  141.2287  156.3366 N.ar    1  UNL1       -0.2262
     18 O         139.4427  143.2930  161.1810 O.3     1  UNL1       -0.4765
     19 C         139.7945  144.6275  161.7684 C.3     1  UNL1        0.1954
     20 C         140.0997  145.7869  160.8669 C.3     1  UNL1        0.0500
     21 C         139.8412  144.8028  163.2575 C.3     1  UNL1        0.1855
     22 C         138.5765  144.8787  165.5258 C.3     1  UNL1        0.1743
     23 O         138.6492  144.4406  164.0930 O.3     1  UNL1       -0.3473
     24 O         141.2553  138.9695  163.4221 O.3     1  UNL1       -0.4352
     25 C         140.9268  139.3748  164.8284 C.ar    1  UNL1        0.2403
     26 N         141.9987  139.9306  165.7185 N.ar    1  UNL1       -0.2090
     27 C         141.6702  140.3359  167.1249 C.ar    1  UNL1        0.1066
     28 C         140.2699  140.1853  167.6412 C.ar    1  UNL1        0.0738
     29 C         139.1981  139.6294  166.7511 C.ar    1  UNL1        0.0222
     30 C         139.5266  139.2242  165.3447 C.ar    1  UNL1        0.1112
     31 CL        138.4547  138.6683  164.4547 Cl      1  UNL1       -0.0774
     32 C         139.9415  140.5906  169.0476 C.2     1  UNL1        0.2506
     33 O         139.4671  139.5636  170.0326 O.2     1  UNL1       -0.2699
     34 N         140.0874  142.0228  169.4688 N.am    1  UNL1       -0.2759
     35 C         140.5183  143.2894  168.7905 C.3     1  UNL1        0.0955
     36 C         140.2937  144.0483  170.0647 C.3     1  UNL1        0.0430
     37 C         139.8628  142.7817  170.7431 C.3     1  UNL1        0.0955
@<TRIPOS>BOND
     1    22    23    1
     2    23    21    1
     3    21    19    1
     4    19    20    1
     5    19    18    1
     6    18     1    1
     7     1     2   ar
     8     2     3   ar
     9     3    24    1
    10    24    25    1
    11    25    26   ar
    12    26    27   ar
    13    27    28   ar
    14    28    32    1
    15    32    33    2
    16    32    34   am
    17    34    35    1
    18    35    36    1
    19    36    37    1
    20    28    29   ar
    21    29    30   ar
    22    30    31    1
    23     3     4   ar
    24     4     5   ar
    25     5     7    1
    26     7     8    2
    27     7     9   am
    28     9    11    1
    29    11    12   ar
    30    12    13   ar
    31    13    14   ar
    32    14    15    1
    33    14    16   ar
    34    16    17   ar
    35     5     6   ar
    36     6     1   ar
    37    30    25   ar
    38    17    11   ar
    39    37    34    1
    40     9    10    1
@<TRIPOS>MOLECULE
*****
 37 40 0 0 0
SMALL
GASTEIGER

@<TRIPOS>ATOM
      1 C         142.5291  140.5675  159.3680 C.ar    1  UNL1        0.1417
      2 C         142.6643  141.5703  160.4752 C.ar    1  UNL1        0.0744
      3 C         143.6913  142.6593  160.3796 C.ar    1  UNL1        0.1504
      4 C         144.5833  142.7455  159.1767 C.ar    1  UNL1        0.0423
      5 C         144.4481  141.7427  158.0695 C.ar    1  UNL1        0.0597
      6 C         143.4210  140.6537  158.1651 C.ar    1  UNL1        0.0416
      7 C         145.3401  141.8288  156.8665 C.2     1  UNL1        0.2508
      8 O         144.9946  141.0682  155.6207 O.2     1  UNL1       -0.2698
      9 N         146.5775  142.6755  156.9094 N.am    1  UNL1       -0.2646
     10 H         146.8042  143.1747  157.7271 H       1  UNL1        0.1566
     11 C         147.4694  142.7617  155.7064 C.ar    1  UNL1        0.1538
     12 C         148.6721  141.8717  155.5992 C.ar    1  UNL1        0.1328
     13 N         149.5639  141.9578  154.3963 N.ar    1  UNL1       -0.2436
     14 C         149.2532  142.9340  153.3006 C.ar    1  UNL1        0.0786
     15 C         150.1452  143.0202  152.0976 C.3     1  UNL1        0.0538
     16 C         148.0506  143.8240  153.4078 C.ar    1  UNL1        0.1150
     17 N         147.1587  143.7378  154.6107 N.ar    1  UNL1       -0.2262
     18 O         141.5020  139.4785  159.4636 O.3     1  UNL1       -0.4765
     19 C         141.6573  138.3884  160.4822 C.3     1  UNL1        0.1954
     20 C         140.5450  138.0982  161.4458 C.3     1  UNL1        0.0500
     21 C         142.9250  137.5884  160.5372 C.3     1  UNL1        0.1855
     22 C         143.9338  138.8209  162.5899 C.3     1  UNL1        0.1743
     23 O         144.1169  138.1216  161.2755 O.3     1  UNL1       -0.3473
     24 O         143.8265  143.6622  161.4869 O.3     1  UNL1       -0.4352
     25 C         143.5031  143.2695  162.8980 C.ar    1  UNL1        0.2403
     26 N         142.2274  143.7378  163.5332 N.ar    1  UNL1       -0.2090
     27 C         141.9040  143.3451  164.9443 C.ar    1  UNL1        0.1066
     28 C         142.8562  142.4841  165.7202 C.ar    1  UNL1        0.0738
     29 C         144.1318  142.0158  165.0850 C.ar    1  UNL1        0.0222
     30 C         144.4552  142.4085  163.6739 C.ar    1  UNL1        0.1112
     31 CL        145.7309  141.9402  163.0387 Cl      1  UNL1       -0.0774
     32 C         142.5328  142.0914  167.1313 C.2     1  UNL1        0.2506
     33 O         143.4006  142.5650  168.2593 O.2     1  UNL1       -0.2699
     34 N         141.3414  141.2249  167.4143 N.am    1  UNL1       -0.2759
     35 C         140.2768  140.5792  166.5780 C.3     1  UNL1        0.0955
     36 C         139.6567  139.9996  167.8147 C.3     1  UNL1        0.0430
     37 C         140.7213  140.6453  168.6511 C.3     1  UNL1        0.0955
@<TRIPOS>BOND
     1    22    23    1
     2    23    21    1
     3    21    19    1
     4    19    20    1
     5    19    18    1
     6    18     1    1
     7     1     2   ar
     8     2     3   ar
     9     3    24    1
    10    24    25    1
    11    25    26   ar
    12    26    27   ar
    13    27    28   ar
    14    28    32    1
    15    32    33    2
    16    32    34   am
    17    34    35    1
    18    35    36    1
    19    36    37    1
    20    28    29   ar
    21    29    30   ar
    22    30    31    1
    23     3     4   ar
    24     4     5   ar
    25     5     7    1
    26     7     8    2
    27     7     9   am
    28     9    11    1
    29    11    12   ar
    30    12    13   ar
    31    13    14   ar
    32    14    15    1
    33    14    16   ar
    34    16    17   ar
    35     5     6   ar
    36     6     1   ar
    37    30    25   ar
    38    17    11   ar
    39    37    34    1
    40     9    10    1
@<TRIPOS>MOLECULE
*****
 37 40 0 0 0
SMALL
GASTEIGER

@<TRIPOS>ATOM
      1 C         142.6090  143.2426  161.0303 C.ar    1  UNL1        0.1417
      2 C         141.6749  142.1583  161.4796 C.ar    1  UNL1        0.0744
      3 C         141.6678  140.8346  160.7741 C.ar    1  UNL1        0.1504
      4 C         142.5946  140.5952  159.6193 C.ar    1  UNL1        0.0423
      5 C         143.5286  141.6795  159.1700 C.ar    1  UNL1        0.0597
      6 C         143.5358  143.0032  159.8755 C.ar    1  UNL1        0.0416
      7 C         144.4554  141.4401  158.0151 C.2     1  UNL1        0.2508
      8 O         144.6891  140.0443  157.5179 O.2     1  UNL1       -0.2698
      9 N         145.1486  142.5964  157.3576 N.am    1  UNL1       -0.2646
     10 H         144.9953  143.5124  157.6840 H       1  UNL1        0.1566
     11 C         146.0755  142.3570  156.2027 C.ar    1  UNL1        0.1538
     12 C         145.5241  142.2188  154.8146 C.ar    1  UNL1        0.1328
     13 N         146.4509  141.9794  153.6599 N.ar    1  UNL1       -0.2436
     14 C         147.9292  141.8782  153.8932 C.ar    1  UNL1        0.0786
     15 C         148.8561  141.6388  152.7383 C.3     1  UNL1        0.0538
     16 C         148.4807  142.0163  155.2812 C.ar    1  UNL1        0.1150
     17 N         147.5538  142.2557  156.4360 N.ar    1  UNL1       -0.2262
     18 O         142.6161  144.5663  161.7358 O.3     1  UNL1       -0.4765
     19 C         142.6714  144.6175  163.2339 C.3     1  UNL1        0.1954
     20 C         143.9430  144.2706  163.9498 C.3     1  UNL1        0.0500
     21 C         141.4549  145.0155  164.0161 C.3     1  UNL1        0.1855
     22 C         138.9103  144.7214  164.4503 C.3     1  UNL1        0.1743
     23 O         140.0901  144.6291  163.5285 O.3     1  UNL1       -0.3473
     24 O         140.7337  139.7503  161.2235 O.3     1  UNL1       -0.4352
     25 C         140.2888  139.6892  162.6547 C.ar    1  UNL1        0.2403
     26 N         141.2562  139.2751  163.7238 N.ar    1  UNL1       -0.2090
     27 C         140.8113  139.2140  165.1550 C.ar    1  UNL1        0.1066
     28 C         139.3990  139.5669  165.5171 C.ar    1  UNL1        0.0738
     29 C         138.4317  139.9809  164.4481 C.ar    1  UNL1        0.0222
     30 C         138.8766  140.0421  163.0169 C.ar    1  UNL1        0.1112
     31 CL        137.9093  140.4561  161.9478 Cl      1  UNL1       -0.0774
     32 C         138.9541  139.5058  166.9483 C.2     1  UNL1        0.2506
     33 O         137.8954  138.5277  167.3635 O.2     1  UNL1       -0.2699
     34 N         139.5680  140.4228  167.9644 N.am    1  UNL1       -0.2759
     35 C         140.6159  141.4955  167.9291 C.3     1  UNL1        0.0955
     36 C         140.4361  141.7196  169.4013 C.3     1  UNL1        0.0430
     37 C         139.3882  140.6469  169.4366 C.3     1  UNL1        0.0955
@<TRIPOS>BOND
     1    22    23    1
     2    23    21    1
     3    21    19    1
     4    19    20    1
     5    19    18    1
     6    18     1    1
     7     1     2   ar
     8     2     3   ar
     9     3    24    1
    10    24    25    1
    11    25    26   ar
    12    26    27   ar
    13    27    28   ar
    14    28    32    1
    15    32    33    2
    16    32    34   am
    17    34    35    1
    18    35    36    1
    19    36    37    1
    20    28    29   ar
    21    29    30   ar
    22    30    31    1
    23     3     4   ar
    24     4     5   ar
    25     5     7    1
    26     7     8    2
    27     7     9   am
    28     9    11    1
    29    11    12   ar
    30    12    13   ar
    31    13    14   ar
    32    14    15    1
    33    14    16   ar
    34    16    17   ar
    35     5     6   ar
    36     6     1   ar
    37    30    25   ar
    38    17    11   ar
    39    37    34    1
    40     9    10    1
@<TRIPOS>MOLECULE
*****
 37 40 0 0 0
SMALL
GASTEIGER

@<TRIPOS>ATOM
      1 C         140.6621  141.4141  161.4440 C.ar    1  UNL1        0.1417
      2 C         140.8227  140.5713  162.6744 C.ar    1  UNL1        0.0744
      3 C         140.9269  139.0798  162.5534 C.ar    1  UNL1        0.1504
      4 C         140.8705  138.4312  161.2021 C.ar    1  UNL1        0.0423
      5 C         140.7099  139.2740  159.9718 C.ar    1  UNL1        0.0597
      6 C         140.6057  140.7655  160.0927 C.ar    1  UNL1        0.0416
      7 C         140.6535  138.6254  158.6204 C.2     1  UNL1        0.2508
      8 O         139.3469  138.5251  157.8906 O.2     1  UNL1       -0.2698
      9 N         141.9037  138.0771  157.9988 N.am    1  UNL1       -0.2646
     10 H         142.7613  138.1430  158.4778 H       1  UNL1        0.1566
     11 C         141.8473  137.4285  156.6474 C.ar    1  UNL1        0.1538
     12 C         141.8033  138.2755  155.4102 C.ar    1  UNL1        0.1328
     13 N         141.7469  137.6269  154.0589 N.ar    1  UNL1       -0.2436
     14 C         141.7345  136.1313  153.9448 C.ar    1  UNL1        0.0786
     15 C         141.6781  135.4827  152.5934 C.3     1  UNL1        0.0538
     16 C         141.7785  135.2843  155.1820 C.ar    1  UNL1        0.1150
     17 N         141.8349  135.9329  156.5333 N.ar    1  UNL1       -0.2262
     18 O         140.5580  142.9056  161.5650 O.3     1  UNL1       -0.4765
     19 C         140.3138  143.5341  162.9049 C.3     1  UNL1        0.1954
     20 C         141.4487  144.1662  163.6548 C.3     1  UNL1        0.0500
     21 C         138.9346  143.5306  163.4948 C.3     1  UNL1        0.1855
     22 C         137.2512  141.6052  163.0375 C.3     1  UNL1        0.1743
     23 O         137.7853  142.9686  162.7117 O.3     1  UNL1       -0.3473
     24 O         141.0875  138.2369  163.7838 O.3     1  UNL1       -0.4352
     25 C         140.7469  138.8031  165.1304 C.ar    1  UNL1        0.2403
     26 N         139.3140  138.8954  165.5646 N.ar    1  UNL1       -0.2090
     27 C         138.9733  139.4615  166.9112 C.ar    1  UNL1        0.1066
     28 C         140.0655  139.9354  167.8237 C.ar    1  UNL1        0.0738
     29 C         141.4983  139.8431  167.3895 C.ar    1  UNL1        0.0222
     30 C         141.8390  139.2769  166.0429 C.ar    1  UNL1        0.1112
     31 CL        143.2719  139.1847  165.6088 Cl      1  UNL1       -0.0774
     32 C         139.7249  140.5016  169.1703 C.2     1  UNL1        0.2506
     33 O         139.0961  139.6272  170.2143 O.2     1  UNL1       -0.2699
     34 N         140.0130  141.9423  169.4729 N.am    1  UNL1       -0.2759
     35 C         140.6126  143.0868  168.7110 C.3     1  UNL1        0.0955
     36 C         140.4205  143.9796  169.9009 C.3     1  UNL1        0.0430
     37 C         139.8210  142.8351  170.6629 C.3     1  UNL1        0.0955
@<TRIPOS>BOND
     1    22    23    1
     2    23    21    1
     3    21    19    1
     4    19    20    1
     5    19    18    1
     6    18     1    1
     7     1     2   ar
     8     2     3   ar
     9     3    24    1
    10    24    25    1
    11    25    26   ar
    12    26    27   ar
    13    27    28   ar
    14    28    32    1
    15    32    33    2
    16    32    34   am
    17    34    35    1
    18    35    36    1
    19    36    37    1
    20    28    29   ar
    21    29    30   ar
    22    30    31    1
    23     3     4   ar
    24     4     5   ar
    25     5     7    1
    26     7     8    2
    27     7     9   am
    28     9    11    1
    29    11    12   ar
    30    12    13   ar
    31    13    14   ar
    32    14    15    1
    33    14    16   ar
    34    16    17   ar
    35     5     6   ar
    36     6     1   ar
    37    30    25   ar
    38    17    11   ar
    39    37    34    1
    40     9    10    1
@<TRIPOS>MOLECULE
*****
 37 40 0 0 0
SMALL
GASTEIGER

@<TRIPOS>ATOM
      1 C         142.6317  142.3942  160.8113 C.ar    1  UNL1        0.1417
      2 C         141.4434  142.1956  161.7048 C.ar    1  UNL1        0.0744
      3 C         140.1950  142.9968  161.4816 C.ar    1  UNL1        0.1504
      4 C         140.1350  143.9964  160.3649 C.ar    1  UNL1        0.0423
      5 C         141.3234  144.1950  159.4715 C.ar    1  UNL1        0.0597
      6 C         142.5717  143.3938  159.6947 C.ar    1  UNL1        0.0416
      7 C         141.2635  145.1947  158.3547 C.2     1  UNL1        0.2508
      8 O         142.3993  146.1512  158.1426 O.2     1  UNL1       -0.2698
      9 N         140.0677  145.2379  157.4501 N.am    1  UNL1       -0.2646
     10 H         139.3222  144.6101  157.5894 H       1  UNL1        0.1566
     11 C         140.0078  146.2376  156.3334 C.ar    1  UNL1        0.1538
     12 C         140.8124  146.0185  155.0866 C.ar    1  UNL1        0.1328
     13 N         140.7524  147.0181  153.9699 N.ar    1  UNL1       -0.2436
     14 C         139.8878  148.2370  154.1001 C.ar    1  UNL1        0.0786
     15 C         139.8279  149.2367  152.9833 C.3     1  UNL1        0.0538
     16 C         139.0832  148.4561  155.3468 C.ar    1  UNL1        0.1150
     17 N         139.1432  147.4564  156.4635 N.ar    1  UNL1       -0.2262
     18 O         143.8801  141.5931  161.0346 O.3     1  UNL1       -0.4765
     19 C         143.8113  140.0955  161.0845 C.3     1  UNL1        0.1954
     20 C         143.4395  139.3204  159.8553 C.3     1  UNL1        0.0500
     21 C         144.1143  139.3730  162.3637 C.3     1  UNL1        0.1855
     22 C         142.7921  140.2958  164.4009 C.3     1  UNL1        0.1743
     23 O         144.0881  140.1136  163.6677 O.3     1  UNL1       -0.3473
     24 O         139.0066  142.7982  162.3751 O.3     1  UNL1       -0.4352
     25 C         139.1713  142.1187  163.7022 C.ar    1  UNL1        0.2403
     26 N         138.8764  140.6540  163.8366 N.ar    1  UNL1       -0.2090
     27 C         139.0411  139.9745  165.1637 C.ar    1  UNL1        0.1066
     28 C         139.5007  140.7597  166.3564 C.ar    1  UNL1        0.0738
     29 C         139.7956  142.2242  166.2219 C.ar    1  UNL1        0.0222
     30 C         139.6309  142.9037  164.8948 C.ar    1  UNL1        0.1112
     31 CL        139.9258  144.3683  164.7604 Cl      1  UNL1       -0.0774
     32 C         139.6654  140.0802  167.6835 C.2     1  UNL1        0.2506
     33 O         138.5185  139.3249  168.2868 O.2     1  UNL1       -0.2699
     34 N         140.9771  140.1560  168.4072 N.am    1  UNL1       -0.2759
     35 C         142.3056  140.7954  168.1309 C.3     1  UNL1        0.0955
     36 C         142.8321  140.2633  169.4308 C.3     1  UNL1        0.0430
     37 C         141.5036  139.6239  169.7071 C.3     1  UNL1        0.0955
@<TRIPOS>BOND
     1    22    23    1
     2    23    21    1
     3    21    19    1
     4    19    20    1
     5    19    18    1
     6    18     1    1
     7     1     2   ar
     8     2     3   ar
     9     3    24    1
    10    24    25    1
    11    25    26   ar
    12    26    27   ar
    13    27    28   ar
    14    28    32    1
    15    32    33    2
    16    32    34   am
    17    34    35    1
    18    35    36    1
    19    36    37    1
    20    28    29   ar
    21    29    30   ar
    22    30    31    1
    23     3     4   ar
    24     4     5   ar
    25     5     7    1
    26     7     8    2
    27     7     9   am
    28     9    11    1
    29    11    12   ar
    30    12    13   ar
    31    13    14   ar
    32    14    15    1
    33    14    16   ar
    34    16    17   ar
    35     5     6   ar
    36     6     1   ar
    37    30    25   ar
    38    17    11   ar
    39    37    34    1
    40     9    10    1
@<TRIPOS>MOLECULE
*****
 37 40 0 0 0
SMALL
GASTEIGER

@<TRIPOS>ATOM
      1 C         142.8474  141.8324  160.4465 C.ar    1  UNL1        0.1417
      2 C         141.6118  141.1001  160.8788 C.ar    1  UNL1        0.0744
      3 C         140.2660  141.5446  160.3875 C.ar    1  UNL1        0.1504
      4 C         140.1558  142.7214  159.4640 C.ar    1  UNL1        0.0423
      5 C         141.3915  143.4537  159.0317 C.ar    1  UNL1        0.0597
      6 C         142.7372  143.0092  159.5230 C.ar    1  UNL1        0.0416
      7 C         141.2813  144.6306  158.1082 C.2     1  UNL1        0.2508
      8 O         142.2843  145.7431  158.1882 O.2     1  UNL1       -0.2698
      9 N         140.1684  144.6949  157.1047 N.am    1  UNL1       -0.2646
     10 H         139.5101  143.9647  157.0521 H       1  UNL1        0.1566
     11 C         140.0583  145.8718  156.1811 C.ar    1  UNL1        0.1538
     12 C         140.8449  145.8993  154.9042 C.ar    1  UNL1        0.1328
     13 N         140.7347  147.0761  153.9808 N.ar    1  UNL1       -0.2436
     14 C         139.8380  148.2255  154.3341 C.ar    1  UNL1        0.0786
     15 C         139.7279  149.4023  153.4106 C.3     1  UNL1        0.0538
     16 C         139.0514  148.1980  155.6110 C.ar    1  UNL1        0.1150
     17 N         139.1615  147.0211  156.5345 N.ar    1  UNL1       -0.2262
     18 O         144.1932  141.3878  160.9377 O.3     1  UNL1       -0.4765
     19 C         144.5945  141.6439  162.3601 C.3     1  UNL1        0.1954
     20 C         144.8902  140.4925  163.2749 C.3     1  UNL1        0.0500
     21 C         144.7002  143.0515  162.8678 C.3     1  UNL1        0.1855
     22 C         143.5940  145.1437  163.9397 C.3     1  UNL1        0.1743
     23 O         143.5112  143.7118  163.5005 O.3     1  UNL1       -0.3473
     24 O         139.0303  140.8122  160.8199 O.3     1  UNL1       -0.4352
     25 C         138.8422  140.4449  162.2620 C.ar    1  UNL1        0.2403
     26 N         139.2681  139.0931  162.7533 N.ar    1  UNL1       -0.2090
     27 C         139.0799  138.7257  164.1954 C.ar    1  UNL1        0.1066
     28 C         138.4659  139.7102  165.1462 C.ar    1  UNL1        0.0738
     29 C         138.0400  141.0619  164.6548 C.ar    1  UNL1        0.0222
     30 C         138.2282  141.4292  163.2127 C.ar    1  UNL1        0.1112
     31 CL        137.8023  142.7810  162.7214 Cl      1  UNL1       -0.0774
     32 C         138.2777  139.3429  166.5883 C.2     1  UNL1        0.2506
     33 O         137.2864  138.2836  166.9693 O.2     1  UNL1       -0.2699
     34 N         139.0810  140.0349  167.6495 N.am    1  UNL1       -0.2759
     35 C         140.1304  141.1066  167.6556 C.3     1  UNL1        0.0955
     36 C         140.2168  141.0134  169.1502 C.3     1  UNL1        0.0430
     37 C         139.1673  139.9417  169.1441 C.3     1  UNL1        0.0955
@<TRIPOS>BOND
     1    22    23    1
     2    23    21    1
     3    21    19    1
     4    19    20    1
     5    19    18    1
     6    18     1    1
     7     1     2   ar
     8     2     3   ar
     9     3    24    1
    10    24    25    1
    11    25    26   ar
    12    26    27   ar
    13    27    28   ar
    14    28    32    1
    15    32    33    2
    16    32    34   am
    17    34    35    1
    18    35    36    1
    19    36    37    1
    20    28    29   ar
    21    29    30   ar
    22    30    31    1
    23     3     4   ar
    24     4     5   ar
    25     5     7    1
    26     7     8    2
    27     7     9   am
    28     9    11    1
    29    11    12   ar
    30    12    13   ar
    31    13    14   ar
    32    14    15    1
    33    14    16   ar
    34    16    17   ar
    35     5     6   ar
    36     6     1   ar
    37    30    25   ar
    38    17    11   ar
    39    37    34    1
    40     9    10    1
