@<TRIPOS>MOLECULE
*****
 38 41 0 0 0
SMALL
GASTEIGER

@<TRIPOS>ATOM
      1 C         142.0867  140.5686  165.8254 C.ar    1  UNL1        0.1395
      2 C         141.1440  139.5752  165.2134 C.ar    1  UNL1        0.0257
      3 C         139.9033  139.1660  165.9505 C.ar    1  UNL1        0.0509
      4 C         138.9606  138.1726  165.3385 C.ar    1  UNL1        0.1353
      5 N         137.7199  137.7634  166.0755 N.ar    1  UNL1       -0.2089
      6 C         137.4219  138.3477  167.4245 C.ar    1  UNL1        0.2000
      7 N         138.3645  139.3411  168.0365 N.ar    1  UNL1       -0.2238
      8 C         139.6052  139.7503  167.2995 C.ar    1  UNL1        0.0888
      9 C         140.5479  140.7437  167.9115 C.ar    1  UNL1        0.0575
     10 C         141.7886  141.1529  167.1745 C.ar    1  UNL1        0.1571
     11 S         143.3274  140.9778  165.0885 S.O2    1  UNL1        0.0083
     12 O         142.6590  142.2545  164.6721 O.2     1  UNL1       -0.1686
     13 O         143.9957  139.7012  165.5049 O.2     1  UNL1       -0.1686
     14 C         144.2669  142.8270  164.6438 C.3     1  UNL1        0.0240
     15 C         144.5681  141.3870  164.3515 C.3     1  UNL1        0.1152
     16 C         144.8694  139.9470  164.0591 C.3     1  UNL1        0.0240
     17 C         145.8088  141.7962  163.6145 C.3     1  UNL1        0.0240
     18 N         139.2587  137.5884  163.9894 N.pl3   1  UNL1       -0.2978
     19 H         139.6556  136.6902  163.9187 H       1  UNL1        0.1536
     20 C         138.9521  138.3727  162.7481 C.ar    1  UNL1        0.0509
     21 C         138.0128  139.5406  162.8117 C.ar    1  UNL1        0.0153
     22 C         137.7062  140.3249  161.5704 C.ar    1  UNL1        0.0093
     23 C         138.3389  139.9414  160.2655 C.ar    1  UNL1        0.0486
     24 S         138.2277  140.5224  158.8871 S.2     1  UNL1       -0.0645
     25 C         139.0982  139.7136  157.9716 C.ar    1  UNL1        0.1345
     26 N         139.7475  138.6328  158.7842 N.ar    1  UNL1       -0.2362
     27 C         139.2782  138.7736  160.2020 C.ar    1  UNL1        0.0892
     28 C         139.5848  137.9893  161.4433 C.ar    1  UNL1        0.0343
     29 O         142.7312  142.1463  167.7865 O.3     1  UNL1       -0.4714
     30 C         143.4156  141.8304  169.0833 C.3     1  UNL1        0.2380
     31 C         142.7673  142.2028  170.3837 C.3     1  UNL1        0.2007
     32 O         141.8124  143.3581  170.4419 O.3     1  UNL1       -0.2694
     33 P         140.3522  143.1128  170.6820 P.3     1  UNL1        0.4732
     34 O         140.6914  142.2424  171.8556 O.2     1  UNL1       -0.2275
     35 O         140.0130  143.9832  169.5084 O.3     1  UNL1       -0.3026
     36 O         138.8920  142.8675  170.9222 O.3     1  UNL1       -0.3026
     37 H         140.8302  144.3204  169.1091 H       1  UNL1        0.2220
     38 H         138.7841  142.2840  171.6894 H       1  UNL1        0.2220
@<TRIPOS>BOND
     1    14    15    1
     2    15    16    1
     3    15    17    1
     4    15    11    1
     5    11    12    2
     6    11    13    2
     7    11     1    1
     8     1     2   ar
     9     2     3   ar
    10     3     4   ar
    11     4    18    1
    12    18    20    1
    13    20    21   ar
    14    21    22   ar
    15    22    23   ar
    16    23    24   ar
    17    24    25   ar
    18    25    26   ar
    19    26    27   ar
    20    27    28   ar
    21     4     5   ar
    22     5     6   ar
    23     6     7   ar
    24     7     8   ar
    25     8     9   ar
    26     9    10   ar
    27    10    29    1
    28    29    30    1
    29    30    31    1
    30    31    32    1
    31    32    33    1
    32    33    34    2
    33    33    35    1
    34    33    36    1
    35    10     1   ar
    36     8     3   ar
    37    28    20   ar
    38    27    23   ar
    39    18    19    1
    40    35    37    1
    41    36    38    1
@<TRIPOS>MOLECULE
*****
 38 41 0 0 0
SMALL
GASTEIGER

@<TRIPOS>ATOM
      1 C         140.8858  140.9093  165.8251 C.ar    1  UNL1        0.1395
      2 C         140.5718  142.0965  164.9637 C.ar    1  UNL1        0.0257
      3 C         141.6398  143.1041  164.6570 C.ar    1  UNL1        0.0509
      4 C         141.3258  144.2913  163.7956 C.ar    1  UNL1        0.1353
      5 N         142.3937  145.2989  163.4889 N.ar    1  UNL1       -0.2089
      6 C         143.7758  145.1194  164.0436 C.ar    1  UNL1        0.2000
      7 N         144.0898  143.9322  164.9050 N.ar    1  UNL1       -0.2238
      8 C         143.0218  142.9246  165.2117 C.ar    1  UNL1        0.0888
      9 C         143.3359  141.7374  166.0731 C.ar    1  UNL1        0.0575
     10 C         142.2679  140.7298  166.3798 C.ar    1  UNL1        0.1571
     11 S         139.8178  139.9017  166.1317 S.O2    1  UNL1        0.0083
     12 O         140.2329  139.0976  164.9355 O.2     1  UNL1       -0.1686
     13 O         139.4027  140.7058  167.3280 O.2     1  UNL1       -0.1686
     14 C         138.9087  138.3081  165.0669 C.3     1  UNL1        0.0240
     15 C         138.7498  138.8940  166.4385 C.3     1  UNL1        0.1152
     16 C         138.5909  139.4800  167.8101 C.3     1  UNL1        0.0240
     17 C         137.6818  137.8864  166.7452 C.3     1  UNL1        0.0240
     18 N         139.9437  144.4708  163.2409 N.pl3   1  UNL1       -0.2978
     19 H         139.2554  144.9309  163.7736 H       1  UNL1        0.1536
     20 C         139.6104  143.9494  161.8745 C.ar    1  UNL1        0.0509
     21 C         138.7039  142.7636  161.7248 C.ar    1  UNL1        0.0153
     22 C         138.3706  142.2421  160.3584 C.ar    1  UNL1        0.0093
     23 C         138.9438  142.9065  159.1417 C.ar    1  UNL1        0.0486
     24 S         138.7953  142.6184  157.6772 S.2     1  UNL1       -0.0645
     25 C         139.6100  143.6262  156.9217 C.ar    1  UNL1        0.1345
     26 N         140.2619  144.5370  157.9194 N.ar    1  UNL1       -0.2362
     27 C         139.8502  144.0922  159.2915 C.ar    1  UNL1        0.0892
     28 C         140.1835  144.6136  160.6579 C.ar    1  UNL1        0.0343
     29 O         142.5820  139.5426  167.2412 O.3     1  UNL1       -0.4714
     30 C         142.4838  139.6521  168.7339 C.3     1  UNL1        0.2380
     31 C         142.1820  140.9764  169.3706 C.3     1  UNL1        0.2007
     32 O         140.9790  141.1272  170.2536 O.3     1  UNL1       -0.2694
     33 P         140.3682  142.4810  170.4643 P.3     1  UNL1        0.4732
     34 O         140.3927  142.2612  171.9479 O.2     1  UNL1       -0.2275
     35 O         140.3437  142.7008  168.9807 O.3     1  UNL1       -0.3026
     36 O         139.7575  143.8347  170.6749 O.3     1  UNL1       -0.3026
     37 H         140.7108  141.9228  168.5324 H       1  UNL1        0.2220
     38 H         139.6408  143.9925  171.6249 H       1  UNL1        0.2220
@<TRIPOS>BOND
     1    14    15    1
     2    15    16    1
     3    15    17    1
     4    15    11    1
     5    11    12    2
     6    11    13    2
     7    11     1    1
     8     1     2   ar
     9     2     3   ar
    10     3     4   ar
    11     4    18    1
    12    18    20    1
    13    20    21   ar
    14    21    22   ar
    15    22    23   ar
    16    23    24   ar
    17    24    25   ar
    18    25    26   ar
    19    26    27   ar
    20    27    28   ar
    21     4     5   ar
    22     5     6   ar
    23     6     7   ar
    24     7     8   ar
    25     8     9   ar
    26     9    10   ar
    27    10    29    1
    28    29    30    1
    29    30    31    1
    30    31    32    1
    31    32    33    1
    32    33    34    2
    33    33    35    1
    34    33    36    1
    35    10     1   ar
    36     8     3   ar
    37    28    20   ar
    38    27    23   ar
    39    18    19    1
    40    35    37    1
    41    36    38    1
@<TRIPOS>MOLECULE
*****
 38 41 0 0 0
SMALL
GASTEIGER

@<TRIPOS>ATOM
      1 C         140.5393  141.5441  167.6765 C.ar    1  UNL1        0.1395
      2 C         140.4635  142.1755  166.3180 C.ar    1  UNL1        0.0257
      3 C         139.6112  141.5567  165.2499 C.ar    1  UNL1        0.0509
      4 C         139.5354  142.1880  163.8913 C.ar    1  UNL1        0.1353
      5 N         138.6832  141.5693  162.8232 N.ar    1  UNL1       -0.2089
      6 C         137.9068  140.3192  163.1137 C.ar    1  UNL1        0.2000
      7 N         137.9826  139.6879  164.4722 N.ar    1  UNL1       -0.2238
      8 C         138.8348  140.3066  165.5403 C.ar    1  UNL1        0.0888
      9 C         138.9106  139.6752  166.8989 C.ar    1  UNL1        0.0575
     10 C         139.7628  140.2939  167.9670 C.ar    1  UNL1        0.1571
     11 S         141.3915  142.1628  168.7446 S.O2    1  UNL1        0.0083
     12 O         142.4981  141.2049  168.4166 O.2     1  UNL1       -0.1686
     13 O         140.2849  143.1208  169.0727 O.2     1  UNL1       -0.1686
     14 C         143.3360  141.7990  169.5105 C.3     1  UNL1        0.0240
     15 C         142.2437  142.7816  169.8128 C.3     1  UNL1        0.1152
     16 C         141.1515  143.7642  170.1151 C.3     1  UNL1        0.0240
     17 C         143.0960  143.4003  170.8809 C.3     1  UNL1        0.0240
     18 N         140.3119  143.4382  163.6009 N.pl3   1  UNL1       -0.2978
     19 H         140.5062  144.0763  164.3249 H       1  UNL1        0.1536
     20 C         140.7924  143.7159  162.2073 C.ar    1  UNL1        0.0509
     21 C         142.0481  143.0680  161.7038 C.ar    1  UNL1        0.0153
     22 C         142.5285  143.3457  160.3102 C.ar    1  UNL1        0.0093
     23 C         141.7532  144.2714  159.4202 C.ar    1  UNL1        0.0486
     24 S         141.9794  144.7320  158.0107 S.2     1  UNL1       -0.0645
     25 C         140.8635  145.6645  157.6431 C.ar    1  UNL1        0.1345
     26 N         139.9477  145.7803  158.8254 N.ar    1  UNL1       -0.2362
     27 C         140.4976  144.9193  159.9237 C.ar    1  UNL1        0.0892
     28 C         140.0171  144.6416  161.3173 C.ar    1  UNL1        0.0343
     29 O         139.8386  139.6626  169.3255 O.3     1  UNL1       -0.4714
     30 C         138.9883  140.1866  170.4446 C.3     1  UNL1        0.2380
     31 C         137.5092  139.9372  170.4427 C.3     1  UNL1        0.2007
     32 O         136.9805  138.5598  170.7133 O.3     1  UNL1       -0.2694
     33 P         135.9602  138.3466  171.7919 P.3     1  UNL1        0.4732
     34 O         136.2153  136.8693  171.7413 O.2     1  UNL1       -0.2275
     35 O         135.7050  139.8239  171.8426 O.3     1  UNL1       -0.3026
     36 O         134.9399  138.1333  172.8706 O.3     1  UNL1       -0.3026
     37 H         136.2720  140.2723  171.1959 H       1  UNL1        0.2220
     38 H         134.8755  137.1867  173.0722 H       1  UNL1        0.2220
@<TRIPOS>BOND
     1    14    15    1
     2    15    16    1
     3    15    17    1
     4    15    11    1
     5    11    12    2
     6    11    13    2
     7    11     1    1
     8     1     2   ar
     9     2     3   ar
    10     3     4   ar
    11     4    18    1
    12    18    20    1
    13    20    21   ar
    14    21    22   ar
    15    22    23   ar
    16    23    24   ar
    17    24    25   ar
    18    25    26   ar
    19    26    27   ar
    20    27    28   ar
    21     4     5   ar
    22     5     6   ar
    23     6     7   ar
    24     7     8   ar
    25     8     9   ar
    26     9    10   ar
    27    10    29    1
    28    29    30    1
    29    30    31    1
    30    31    32    1
    31    32    33    1
    32    33    34    2
    33    33    35    1
    34    33    36    1
    35    10     1   ar
    36     8     3   ar
    37    28    20   ar
    38    27    23   ar
    39    18    19    1
    40    35    37    1
    41    36    38    1
@<TRIPOS>MOLECULE
*****
 38 41 0 0 0
SMALL
GASTEIGER

@<TRIPOS>ATOM
      1 C         141.6167  142.1006  162.9609 C.ar    1  UNL1        0.1395
      2 C         141.0859  140.7504  163.3417 C.ar    1  UNL1        0.0257
      3 C         140.0410  140.0886  162.4929 C.ar    1  UNL1        0.0509
      4 C         139.5102  138.7383  162.8737 C.ar    1  UNL1        0.1353
      5 N         138.4653  138.0765  162.0251 N.ar    1  UNL1       -0.2089
      6 C         137.9513  138.7650  160.7956 C.ar    1  UNL1        0.2000
      7 N         138.4820  140.1153  160.4148 N.ar    1  UNL1       -0.2238
      8 C         139.5269  140.7771  161.2635 C.ar    1  UNL1        0.0888
      9 C         140.0577  142.1274  160.8827 C.ar    1  UNL1        0.0575
     10 C         141.1025  142.7892  161.7313 C.ar    1  UNL1        0.1571
     11 S         142.6616  142.7624  163.8095 S.O2    1  UNL1        0.0083
     12 O         143.7371  142.1616  162.9538 O.2     1  UNL1       -0.1686
     13 O         141.5860  143.3632  164.6652 O.2     1  UNL1       -0.1686
     14 C         144.0214  144.3673  163.5351 C.3     1  UNL1        0.0240
     15 C         143.7064  143.4242  164.6583 C.3     1  UNL1        0.1152
     16 C         143.3915  142.4812  165.7814 C.3     1  UNL1        0.0240
     17 C         144.7513  144.0861  165.5069 C.3     1  UNL1        0.0240
     18 N         140.0244  138.0498  164.1033 N.pl3   1  UNL1       -0.2978
     19 H         140.5226  137.2046  164.0222 H       1  UNL1        0.1536
     20 C         139.7793  138.6491  165.4563 C.ar    1  UNL1        0.0509
     21 C         138.4103  138.5890  166.0665 C.ar    1  UNL1        0.0153
     22 C         138.1652  139.1883  167.4195 C.ar    1  UNL1        0.0093
     23 C         139.2892  139.8478  168.1624 C.ar    1  UNL1        0.0486
     24 S         139.3487  140.5204  169.5018 S.2     1  UNL1       -0.0645
     25 C         140.7545  140.9962  169.7195 C.ar    1  UNL1        0.1345
     26 N         141.5638  140.6176  168.5146 N.ar    1  UNL1       -0.2362
     27 C         140.6582  139.9079  167.5523 C.ar    1  UNL1        0.0892
     28 C         140.9032  139.3086  166.1992 C.ar    1  UNL1        0.0343
     29 O         141.6333  144.1394  161.3505 O.3     1  UNL1       -0.4714
     30 C         140.6840  145.2501  161.0113 C.3     1  UNL1        0.2380
     31 C         139.8403  145.8700  162.0856 C.3     1  UNL1        0.2007
     32 O         138.5244  145.2525  162.4557 O.3     1  UNL1       -0.2694
     33 P         138.4348  144.3273  163.6330 P.3     1  UNL1        0.4732
     34 O         137.5355  143.4176  162.8496 O.2     1  UNL1       -0.2275
     35 O         139.3342  145.2369  164.4164 O.3     1  UNL1       -0.3026
     36 O         138.3452  143.4021  164.8102 O.3     1  UNL1       -0.3026
     37 H         139.5827  145.9971  163.8675 H       1  UNL1        0.2220
     38 H         137.7776  142.6480  164.5864 H       1  UNL1        0.2220
@<TRIPOS>BOND
     1    14    15    1
     2    15    16    1
     3    15    17    1
     4    15    11    1
     5    11    12    2
     6    11    13    2
     7    11     1    1
     8     1     2   ar
     9     2     3   ar
    10     3     4   ar
    11     4    18    1
    12    18    20    1
    13    20    21   ar
    14    21    22   ar
    15    22    23   ar
    16    23    24   ar
    17    24    25   ar
    18    25    26   ar
    19    26    27   ar
    20    27    28   ar
    21     4     5   ar
    22     5     6   ar
    23     6     7   ar
    24     7     8   ar
    25     8     9   ar
    26     9    10   ar
    27    10    29    1
    28    29    30    1
    29    30    31    1
    30    31    32    1
    31    32    33    1
    32    33    34    2
    33    33    35    1
    34    33    36    1
    35    10     1   ar
    36     8     3   ar
    37    28    20   ar
    38    27    23   ar
    39    18    19    1
    40    35    37    1
    41    36    38    1
@<TRIPOS>MOLECULE
*****
 38 41 0 0 0
SMALL
GASTEIGER

@<TRIPOS>ATOM
      1 C         141.1733  142.1167  165.7270 C.ar    1  UNL1        0.1395
      2 C         140.2350  141.2278  164.9658 C.ar    1  UNL1        0.0257
      3 C         139.3646  140.2518  165.7006 C.ar    1  UNL1        0.0509
      4 C         138.4262  139.3629  164.9394 C.ar    1  UNL1        0.1353
      5 N         137.5559  138.3870  165.6742 N.ar    1  UNL1       -0.2089
      6 C         137.6238  138.2999  167.1701 C.ar    1  UNL1        0.2000
      7 N         138.5622  139.1888  167.9312 N.ar    1  UNL1       -0.2238
      8 C         139.4325  140.1648  167.1965 C.ar    1  UNL1        0.0888
      9 C         140.3709  141.0537  167.9577 C.ar    1  UNL1        0.0575
     10 C         141.2413  142.0296  167.2229 C.ar    1  UNL1        0.1571
     11 S         142.0437  143.0927  164.9922 S.O2    1  UNL1        0.0083
     12 O         140.8945  144.0527  164.9060 O.2     1  UNL1       -0.1686
     13 O         143.1930  142.1327  165.0785 O.2     1  UNL1       -0.1686
     14 C         144.1251  143.4986  164.9348 C.3     1  UNL1        0.0240
     15 C         142.9142  144.0687  164.2575 C.3     1  UNL1        0.1152
     16 C         141.7034  144.6388  163.5802 C.3     1  UNL1        0.0240
     17 C         143.7847  145.0446  163.5228 C.3     1  UNL1        0.0240
     18 N         138.3583  139.4501  163.4435 N.pl3   1  UNL1       -0.2978
     19 H         137.5501  139.8047  163.0072 H       1  UNL1        0.1536
     20 C         139.5218  138.9969  162.6122 C.ar    1  UNL1        0.0509
     21 C         140.4831  137.9826  163.1574 C.ar    1  UNL1        0.0153
     22 C         141.6466  137.5294  162.3262 C.ar    1  UNL1        0.0093
     23 C         141.8487  138.0905  160.9498 C.ar    1  UNL1        0.0486
     24 S         142.8957  137.8362  159.9061 S.2     1  UNL1       -0.0645
     25 C         142.5814  138.6934  158.7159 C.ar    1  UNL1        0.1345
     26 N         141.3402  139.4773  159.0241 N.ar    1  UNL1       -0.2362
     27 C         140.8874  139.1047  160.4047 C.ar    1  UNL1        0.0892
     28 C         139.7240  139.5579  161.2359 C.ar    1  UNL1        0.0343
     29 O         142.1796  142.9185  167.9841 O.3     1  UNL1       -0.4714
     30 C         143.2568  142.3167  168.8370 C.3     1  UNL1        0.2380
     31 C         143.2774  142.5774  170.3140 C.3     1  UNL1        0.2007
     32 O         141.9892  142.7412  171.0647 O.3     1  UNL1       -0.2694
     33 P         141.2138  141.5319  171.4965 P.3     1  UNL1        0.4732
     34 O         139.9321  142.2305  171.1512 O.2     1  UNL1       -0.2275
     35 O         142.4955  140.8334  171.8419 O.3     1  UNL1       -0.3026
     36 O         140.4384  140.3227  171.9283 O.3     1  UNL1       -0.3026
     37 H         143.2445  141.4201  171.6530 H       1  UNL1        0.2220
     38 H         139.4898  140.4879  171.8109 H       1  UNL1        0.2220
@<TRIPOS>BOND
     1    14    15    1
     2    15    16    1
     3    15    17    1
     4    15    11    1
     5    11    12    2
     6    11    13    2
     7    11     1    1
     8     1     2   ar
     9     2     3   ar
    10     3     4   ar
    11     4    18    1
    12    18    20    1
    13    20    21   ar
    14    21    22   ar
    15    22    23   ar
    16    23    24   ar
    17    24    25   ar
    18    25    26   ar
    19    26    27   ar
    20    27    28   ar
    21     4     5   ar
    22     5     6   ar
    23     6     7   ar
    24     7     8   ar
    25     8     9   ar
    26     9    10   ar
    27    10    29    1
    28    29    30    1
    29    30    31    1
    30    31    32    1
    31    32    33    1
    32    33    34    2
    33    33    35    1
    34    33    36    1
    35    10     1   ar
    36     8     3   ar
    37    28    20   ar
    38    27    23   ar
    39    18    19    1
    40    35    37    1
    41    36    38    1
@<TRIPOS>MOLECULE
*****
 38 41 0 0 0
SMALL
GASTEIGER

@<TRIPOS>ATOM
      1 C         141.2100  142.0483  164.5348 C.ar    1  UNL1        0.1395
      2 C         141.4231  140.6354  164.0783 C.ar    1  UNL1        0.0257
      3 C         140.4692  139.5583  164.5026 C.ar    1  UNL1        0.0509
      4 C         140.6823  138.1454  164.0461 C.ar    1  UNL1        0.1353
      5 N         139.7284  137.0682  164.4703 N.ar    1  UNL1       -0.2089
      6 C         138.5615  137.4040  165.3509 C.ar    1  UNL1        0.2000
      7 N         138.3484  138.8169  165.8073 N.ar    1  UNL1       -0.2238
      8 C         139.3022  139.8940  165.3831 C.ar    1  UNL1        0.0888
      9 C         139.0891  141.3069  165.8396 C.ar    1  UNL1        0.0575
     10 C         140.0429  142.3840  165.4154 C.ar    1  UNL1        0.1571
     11 S         142.1638  143.1254  164.1106 S.O2    1  UNL1        0.0083
     12 O         142.9073  142.9767  165.4048 O.2     1  UNL1       -0.1686
     13 O         141.4202  143.2742  162.8164 O.2     1  UNL1       -0.1686
     14 C         141.9643  145.0393  163.2177 C.3     1  UNL1        0.0240
     15 C         143.1176  144.2026  163.6864 C.3     1  UNL1        0.1152
     16 C         144.2710  143.3660  164.1551 C.3     1  UNL1        0.0240
     17 C         144.0714  145.2798  163.2622 C.3     1  UNL1        0.0240
     18 N         141.8493  137.8097  163.1655 N.pl3   1  UNL1       -0.2978
     19 H         142.6854  137.4746  163.5627 H       1  UNL1        0.1536
     20 C         141.7422  137.9844  161.6795 C.ar    1  UNL1        0.0509
     21 C         142.9433  137.7595  160.8095 C.ar    1  UNL1        0.0153
     22 C         142.8362  137.9342  159.3235 C.ar    1  UNL1        0.0093
     23 C         141.5281  138.3338  158.7076 C.ar    1  UNL1        0.0486
     24 S         141.1223  138.5797  157.2847 S.2     1  UNL1       -0.0645
     25 C         139.6704  138.9565  157.2753 C.ar    1  UNL1        0.1345
     26 N         139.1790  138.9436  158.6925 N.ar    1  UNL1       -0.2362
     27 C         140.3272  138.5587  159.5777 C.ar    1  UNL1        0.0892
     28 C         140.4342  138.3840  161.0636 C.ar    1  UNL1        0.0343
     29 O         139.8298  143.7969  165.8719 O.3     1  UNL1       -0.4714
     30 C         138.7096  144.6106  165.2949 C.3     1  UNL1        0.2380
     31 C         138.3827  144.5076  163.8345 C.3     1  UNL1        0.2007
     32 O         137.3357  143.5406  163.3668 O.3     1  UNL1       -0.2694
     33 P         137.6878  142.4797  162.3666 P.3     1  UNL1        0.4732
     34 O         138.5025  143.4763  161.5964 O.2     1  UNL1       -0.2275
     35 O         136.8732  141.4832  163.1368 O.3     1  UNL1       -0.3026
     36 O         138.0400  141.4188  161.3663 O.3     1  UNL1       -0.3026
     37 H         136.4829  141.9152  163.9126 H       1  UNL1        0.2220
     38 H         138.6126  141.7977  160.6812 H       1  UNL1        0.2220
@<TRIPOS>BOND
     1    14    15    1
     2    15    16    1
     3    15    17    1
     4    15    11    1
     5    11    12    2
     6    11    13    2
     7    11     1    1
     8     1     2   ar
     9     2     3   ar
    10     3     4   ar
    11     4    18    1
    12    18    20    1
    13    20    21   ar
    14    21    22   ar
    15    22    23   ar
    16    23    24   ar
    17    24    25   ar
    18    25    26   ar
    19    26    27   ar
    20    27    28   ar
    21     4     5   ar
    22     5     6   ar
    23     6     7   ar
    24     7     8   ar
    25     8     9   ar
    26     9    10   ar
    27    10    29    1
    28    29    30    1
    29    30    31    1
    30    31    32    1
    31    32    33    1
    32    33    34    2
    33    33    35    1
    34    33    36    1
    35    10     1   ar
    36     8     3   ar
    37    28    20   ar
    38    27    23   ar
    39    18    19    1
    40    35    37    1
    41    36    38    1
@<TRIPOS>MOLECULE
*****
 38 41 0 0 0
SMALL
GASTEIGER

@<TRIPOS>ATOM
      1 C         140.8998  141.1807  165.8492 C.ar    1  UNL1        0.1395
      2 C         140.5855  142.3425  164.9540 C.ar    1  UNL1        0.0257
      3 C         141.6644  143.3158  164.5816 C.ar    1  UNL1        0.0509
      4 C         141.3501  144.4776  163.6864 C.ar    1  UNL1        0.1353
      5 N         142.4289  145.4509  163.3140 N.ar    1  UNL1       -0.2089
      6 C         143.8222  145.2623  163.8367 C.ar    1  UNL1        0.2000
      7 N         144.1365  144.1005  164.7319 N.ar    1  UNL1       -0.2238
      8 C         143.0577  143.1272  165.1043 C.ar    1  UNL1        0.0888
      9 C         143.3720  141.9654  165.9995 C.ar    1  UNL1        0.0575
     10 C         142.2932  140.9921  166.3719 C.ar    1  UNL1        0.1571
     11 S         139.8209  140.2074  166.2217 S.O2    1  UNL1        0.0083
     12 O         139.6607  140.8921  167.5466 O.2     1  UNL1       -0.1686
     13 O         139.9812  139.5227  164.8967 O.2     1  UNL1       -0.1686
     14 C         138.6219  138.8179  165.1580 C.3     1  UNL1        0.0240
     15 C         138.7420  139.2341  166.5941 C.3     1  UNL1        0.1152
     16 C         138.8622  139.6503  168.0301 C.3     1  UNL1        0.0240
     17 C         137.6632  138.2608  166.9664 C.3     1  UNL1        0.0240
     18 N         139.9567  144.6662  163.1637 N.pl3   1  UNL1       -0.2978
     19 H         139.3133  145.2176  163.6649 H       1  UNL1        0.1536
     20 C         139.5437  144.0145  161.8773 C.ar    1  UNL1        0.0509
     21 C         138.5441  142.8962  161.8902 C.ar    1  UNL1        0.0153
     22 C         138.1311  142.2445  160.6039 C.ar    1  UNL1        0.0093
     23 C         138.7177  142.7112  159.3046 C.ar    1  UNL1        0.0486
     24 S         138.5041  142.2641  157.8888 S.2     1  UNL1       -0.0645
     25 C         139.3717  143.1061  157.0009 C.ar    1  UNL1        0.1345
     26 N         140.1215  144.0736  157.8679 N.ar    1  UNL1       -0.2362
     27 C         139.7173  143.8296  159.2917 C.ar    1  UNL1        0.0892
     28 C         140.1303  144.4812  160.5781 C.ar    1  UNL1        0.0343
     29 O         142.6075  139.8303  167.2671 O.3     1  UNL1       -0.4714
     30 C         143.2324  138.5917  166.6968 C.3     1  UNL1        0.2380
     31 C         143.9279  138.6457  165.3689 C.3     1  UNL1        0.2007
     32 O         143.1262  138.7614  164.1065 O.3     1  UNL1       -0.2694
     33 P         143.8172  138.7466  162.7752 P.3     1  UNL1        0.4732
     34 O         142.7074  137.9117  162.2084 O.2     1  UNL1       -0.2275
     35 O         144.9270  139.5816  163.3419 O.3     1  UNL1       -0.3026
     36 O         144.5081  138.7319  161.4439 O.3     1  UNL1       -0.3026
     37 H         144.7449  139.7706  164.2757 H       1  UNL1        0.2220
     38 H         143.9804  138.2197  160.8114 H       1  UNL1        0.2220
@<TRIPOS>BOND
     1    14    15    1
     2    15    16    1
     3    15    17    1
     4    15    11    1
     5    11    12    2
     6    11    13    2
     7    11     1    1
     8     1     2   ar
     9     2     3   ar
    10     3     4   ar
    11     4    18    1
    12    18    20    1
    13    20    21   ar
    14    21    22   ar
    15    22    23   ar
    16    23    24   ar
    17    24    25   ar
    18    25    26   ar
    19    26    27   ar
    20    27    28   ar
    21     4     5   ar
    22     5     6   ar
    23     6     7   ar
    24     7     8   ar
    25     8     9   ar
    26     9    10   ar
    27    10    29    1
    28    29    30    1
    29    30    31    1
    30    31    32    1
    31    32    33    1
    32    33    34    2
    33    33    35    1
    34    33    36    1
    35    10     1   ar
    36     8     3   ar
    37    28    20   ar
    38    27    23   ar
    39    18    19    1
    40    35    37    1
    41    36    38    1
@<TRIPOS>MOLECULE
*****
 38 41 0 0 0
SMALL
GASTEIGER

@<TRIPOS>ATOM
      1 C         141.8048  138.9682  160.2988 C.ar    1  UNL1        0.1395
      2 C         141.7860  138.3541  158.9303 C.ar    1  UNL1        0.0257
      3 C         142.7605  138.8159  157.8876 C.ar    1  UNL1        0.0509
      4 C         142.7417  138.2018  156.5192 C.ar    1  UNL1        0.1353
      5 N         143.7161  138.6635  155.4765 N.ar    1  UNL1       -0.2089
      6 C         144.7093  139.7393  155.8022 C.ar    1  UNL1        0.2000
      7 N         144.7281  140.3534  157.1706 N.ar    1  UNL1       -0.2238
      8 C         143.7537  139.8917  158.2133 C.ar    1  UNL1        0.0888
      9 C         143.7725  140.5058  159.5817 C.ar    1  UNL1        0.0575
     10 C         142.7981  140.0441  160.6244 C.ar    1  UNL1        0.1571
     11 S         140.8304  138.5066  161.3415 S.O2    1  UNL1        0.0083
     12 O         141.7520  137.3800  161.7040 O.2     1  UNL1       -0.1686
     13 O         139.9087  139.6331  160.9790 O.2     1  UNL1       -0.1686
     14 C         138.7181  138.3480  161.4550 C.3     1  UNL1        0.0240
     15 C         139.8559  138.0449  162.3842 C.3     1  UNL1        0.1152
     16 C         140.9937  137.7418  163.3134 C.3     1  UNL1        0.0240
     17 C         138.8814  137.5833  163.4269 C.3     1  UNL1        0.0240
     18 N         141.7484  137.1260  156.1935 N.pl3   1  UNL1       -0.2978
     19 H         140.8302  137.3665  155.9320 H       1  UNL1        0.1536
     20 C         142.1540  135.6837  156.2664 C.ar    1  UNL1        0.0509
     21 C         141.4421  134.6612  155.4310 C.ar    1  UNL1        0.0153
     22 C         141.8477  133.2190  155.5038 C.ar    1  UNL1        0.0093
     23 C         142.9653  132.7991  156.4120 C.ar    1  UNL1        0.0486
     24 S         143.5816  131.4607  156.6925 S.2     1  UNL1       -0.0645
     25 C         144.6745  131.6560  157.7013 C.ar    1  UNL1        0.1345
     26 N         144.7335  133.1150  158.0442 N.ar    1  UNL1       -0.2362
     27 C         143.6772  133.8216  157.2474 C.ar    1  UNL1        0.0892
     28 C         143.2715  135.2638  157.1745 C.ar    1  UNL1        0.0343
     29 O         142.8169  140.6582  161.9928 O.3     1  UNL1       -0.4714
     30 C         143.0160  142.1367  162.1487 C.3     1  UNL1        0.2380
     31 C         142.0070  143.0929  161.5850 C.3     1  UNL1        0.2007
     32 O         140.9844  143.7208  162.4849 O.3     1  UNL1       -0.2694
     33 P         140.6834  145.1858  162.3707 P.3     1  UNL1        0.4732
     34 O         139.6382  145.0543  163.4387 O.2     1  UNL1       -0.2275
     35 O         141.7285  145.3173  161.3028 O.3     1  UNL1       -0.3026
     36 O         140.3823  146.6509  162.2565 O.3     1  UNL1       -0.3026
     37 H         142.1373  144.4524  161.1422 H       1  UNL1        0.2220
     38 H         139.6803  146.8865  162.8830 H       1  UNL1        0.2220
@<TRIPOS>BOND
     1    14    15    1
     2    15    16    1
     3    15    17    1
     4    15    11    1
     5    11    12    2
     6    11    13    2
     7    11     1    1
     8     1     2   ar
     9     2     3   ar
    10     3     4   ar
    11     4    18    1
    12    18    20    1
    13    20    21   ar
    14    21    22   ar
    15    22    23   ar
    16    23    24   ar
    17    24    25   ar
    18    25    26   ar
    19    26    27   ar
    20    27    28   ar
    21     4     5   ar
    22     5     6   ar
    23     6     7   ar
    24     7     8   ar
    25     8     9   ar
    26     9    10   ar
    27    10    29    1
    28    29    30    1
    29    30    31    1
    30    31    32    1
    31    32    33    1
    32    33    34    2
    33    33    35    1
    34    33    36    1
    35    10     1   ar
    36     8     3   ar
    37    28    20   ar
    38    27    23   ar
    39    18    19    1
    40    35    37    1
    41    36    38    1
@<TRIPOS>MOLECULE
*****
 38 41 0 0 0
SMALL
GASTEIGER

@<TRIPOS>ATOM
      1 C         141.0503  140.8575  165.3210 C.ar    1  UNL1        0.1395
      2 C         141.0757  141.3712  163.9120 C.ar    1  UNL1        0.0257
      3 C         142.1619  142.3089  163.4750 C.ar    1  UNL1        0.0509
      4 C         142.1873  142.8226  162.0659 C.ar    1  UNL1        0.1353
      5 N         143.2735  143.7603  161.6289 N.ar    1  UNL1       -0.2089
      6 C         144.3343  144.1842  162.6010 C.ar    1  UNL1        0.2000
      7 N         144.3089  143.6705  164.0100 N.ar    1  UNL1       -0.2238
      8 C         143.2227  142.7328  164.4470 C.ar    1  UNL1        0.0888
      9 C         143.1974  142.2191  165.8561 C.ar    1  UNL1        0.0575
     10 C         142.1112  141.2815  166.2931 C.ar    1  UNL1        0.1571
     11 S         139.9641  139.9199  165.7580 S.O2    1  UNL1        0.0083
     12 O         140.8607  138.7506  165.4776 O.2     1  UNL1       -0.1686
     13 O         139.0675  141.0892  166.0385 O.2     1  UNL1       -0.1686
     14 C         138.9280  139.5675  167.5752 C.3     1  UNL1        0.0240
     15 C         138.8779  138.9823  166.1951 C.3     1  UNL1        0.1152
     16 C         138.8277  138.3970  164.8149 C.3     1  UNL1        0.0240
     17 C         137.7916  138.0447  166.6321 C.3     1  UNL1        0.0240
     18 N         141.1264  142.3987  161.0938 N.pl3   1  UNL1       -0.2978
     19 H         140.2864  142.9079  161.0289 H       1  UNL1        0.1536
     20 C         141.3455  141.1988  160.2208 C.ar    1  UNL1        0.0509
     21 C         140.6234  139.9168  160.5128 C.ar    1  UNL1        0.0153
     22 C         140.8424  138.7170  159.6397 C.ar    1  UNL1        0.0093
     23 C         141.7837  138.7990  158.4746 C.ar    1  UNL1        0.0486
     24 S         142.1976  137.7891  157.4457 S.2     1  UNL1       -0.0645
     25 C         143.1755  138.4468  156.5178 C.ar    1  UNL1        0.1345
     26 N         143.3660  139.8632  156.9732 N.ar    1  UNL1       -0.2362
     27 C         142.5058  140.0809  158.1826 C.ar    1  UNL1        0.0892
     28 C         142.2867  141.2808  159.0557 C.ar    1  UNL1        0.0343
     29 O         142.0858  140.7678  167.7022 O.3     1  UNL1       -0.4714
     30 C         142.6947  141.5789  168.8073 C.3     1  UNL1        0.2380
     31 C         142.0590  142.8711  169.2270 C.3     1  UNL1        0.2007
     32 O         141.0045  142.8765  170.2937 O.3     1  UNL1       -0.2694
     33 P         140.8544  141.6952  171.2059 P.3     1  UNL1        0.4732
     34 O         139.5987  141.2997  170.4870 O.2     1  UNL1       -0.2275
     35 O         142.1101  142.0907  171.9248 O.3     1  UNL1       -0.3026
     36 O         140.7042  140.5140  172.1181 O.3     1  UNL1       -0.3026
     37 H         142.4723  142.8962  171.5236 H       1  UNL1        0.2220
     38 H         139.9063  140.0182  171.8764 H       1  UNL1        0.2220
@<TRIPOS>BOND
     1    14    15    1
     2    15    16    1
     3    15    17    1
     4    15    11    1
     5    11    12    2
     6    11    13    2
     7    11     1    1
     8     1     2   ar
     9     2     3   ar
    10     3     4   ar
    11     4    18    1
    12    18    20    1
    13    20    21   ar
    14    21    22   ar
    15    22    23   ar
    16    23    24   ar
    17    24    25   ar
    18    25    26   ar
    19    26    27   ar
    20    27    28   ar
    21     4     5   ar
    22     5     6   ar
    23     6     7   ar
    24     7     8   ar
    25     8     9   ar
    26     9    10   ar
    27    10    29    1
    28    29    30    1
    29    30    31    1
    30    31    32    1
    31    32    33    1
    32    33    34    2
    33    33    35    1
    34    33    36    1
    35    10     1   ar
    36     8     3   ar
    37    28    20   ar
    38    27    23   ar
    39    18    19    1
    40    35    37    1
    41    36    38    1
