@<TRIPOS>MOLECULE
*****
 37 39 0 0 0
SMALL
GASTEIGER

@<TRIPOS>ATOM
      1 C         144.1501  141.9812  158.8564 C.3     1  UNL1        0.1459
      2 O         144.5364  142.7509  157.6283 O.3     1  UNL1       -0.3813
      3 H         144.8630  143.6273  157.8854 H       1  UNL1        0.2105
      4 C         143.6113  140.5871  158.7291 C.3     1  UNL1        0.1034
      5 C         142.1645  138.3921  162.3813 C.3     1  UNL1        0.1687
      6 C         141.1785  139.0492  161.4615 C.3     1  UNL1        0.0609
      7 C         141.6608  139.7809  160.2441 C.3     1  UNL1        0.0759
      8 N         143.1291  139.8554  159.9465 N.3     1  UNL1       -0.2704
      9 C         144.1151  139.1983  160.8663 C.3     1  UNL1        0.0759
     10 C         143.6328  138.4666  162.0837 C.3     1  UNL1        0.0609
     11 O         141.6822  137.6604  163.5987 O.3     1  UNL1       -0.4782
     12 C         142.6613  139.8368  168.2144 C.3     1  UNL1        0.0329
     13 C         141.7023  139.5167  167.1064 C.ar    1  UNL1        0.0023
     14 C         140.2737  139.9648  167.1981 C.ar    1  UNL1        0.0547
     15 CL        139.8042  140.7330  168.3979 Cl      1  UNL1       -0.0825
     16 C         139.3147  139.6447  166.0900 C.ar    1  UNL1        0.0142
     17 C         139.7842  138.8766  164.8903 C.ar    1  UNL1        0.0386
     18 C         141.2127  138.4285  164.7985 C.ar    1  UNL1        0.1485
     19 C         142.1717  138.7486  165.9066 C.ar    1  UNL1        0.0884
     20 CL        143.6004  138.3005  165.8148 Cl      1  UNL1       -0.0794
     21 C         144.3025  142.6056  160.2117 C.3     1  UNL1        0.1204
     22 N         143.0916  142.8677  161.0572 N.am    1  UNL1       -0.2985
     23 C         143.1515  143.8843  162.1585 C.2     1  UNL1        0.2473
     24 O         144.4224  144.6388  162.4143 O.2     1  UNL1       -0.2701
     25 H         142.2574  142.3724  160.8893 H       1  UNL1        0.1498
     26 C         141.9405  144.1463  163.0040 C.ar    1  UNL1        0.0744
     27 C         140.9035  145.1281  162.5450 C.ar    1  UNL1        0.0792
     28 N         139.6925  145.3902  163.3905 N.ar    1  UNL1       -0.3198
     29 C         139.5185  144.6705  164.6950 C.ar    1  UNL1        0.2577
     30 O         138.3076  144.9325  165.5405 O.2     1  UNL1       -0.2672
     31 C         140.5555  143.6887  165.1540 C.ar    1  UNL1        0.0646
     32 C         141.7665  143.4266  164.3085 C.ar    1  UNL1        0.0819
     33 H         139.0119  146.0346  163.0893 H       1  UNL1        0.1690
     34 C         142.8035  142.4448  164.7675 C.3     1  UNL1        0.4189
     35 F         143.8405  141.4630  165.2266 F       1  UNL1       -0.1659
     36 F         142.0961  141.3503  164.0249 F       1  UNL1       -0.1659
     37 F         143.5110  143.5393  165.5102 F       1  UNL1       -0.1659
@<TRIPOS>BOND
     1    12    13    1
     2    13    14   ar
     3    14    15    1
     4    14    16   ar
     5    16    17   ar
     6    17    18   ar
     7    18    11    1
     8    11     5    1
     9     5     6    1
    10     6     7    1
    11     7     8    1
    12     8     4    1
    13     4     1    1
    14     1     2    1
    15     1    21    1
    16    21    22    1
    17    22    23   am
    18    23    24    2
    19    23    26    1
    20    26    27   ar
    21    27    28   ar
    22    28    29   ar
    23    29    30    2
    24    29    31   ar
    25    31    32   ar
    26    32    34    1
    27    34    35    1
    28    34    36    1
    29    34    37    1
    30     8     9    1
    31     9    10    1
    32    18    19   ar
    33    19    20    1
    34    19    13   ar
    35    10     5    1
    36    32    26   ar
    37     2     3    1
    38    22    25    1
    39    28    33    1
@<TRIPOS>MOLECULE
*****
 37 39 0 0 0
SMALL
GASTEIGER

@<TRIPOS>ATOM
      1 C         137.8707  139.6243  160.4645 C.3     1  UNL1        0.1459
      2 O         136.3970  139.7534  160.2164 O.3     1  UNL1       -0.3813
      3 H         136.2314  140.5181  159.6431 H       1  UNL1        0.2105
      4 C         138.3916  138.5131  161.3270 C.3     1  UNL1        0.1034
      5 C         138.6974  139.0764  165.7811 C.3     1  UNL1        0.1687
      6 C         138.1588  140.1808  164.9207 C.3     1  UNL1        0.0609
      7 C         138.0568  139.9930  163.4360 C.3     1  UNL1        0.0759
      8 N         138.4935  138.7009  162.8117 N.3     1  UNL1       -0.2704
      9 C         139.0322  137.5965  163.6721 C.3     1  UNL1        0.0759
     10 C         139.1341  137.7843  165.1568 C.3     1  UNL1        0.0609
     11 O         138.7994  139.2642  167.2658 O.3     1  UNL1       -0.4782
     12 C         140.9995  141.8324  171.2109 C.3     1  UNL1        0.0329
     13 C         141.0793  141.2656  169.8244 C.ar    1  UNL1        0.0023
     14 C         142.3388  141.4162  169.0239 C.ar    1  UNL1        0.0547
     15 CL        143.5187  142.1335  169.6099 Cl      1  UNL1       -0.0825
     16 C         142.4186  140.8494  167.6374 C.ar    1  UNL1        0.0142
     17 C         141.2388  140.1321  167.0513 C.ar    1  UNL1        0.0386
     18 C         139.9792  139.9815  167.8518 C.ar    1  UNL1        0.1485
     19 C         139.8995  140.5483  169.2383 C.ar    1  UNL1        0.0884
     20 CL        138.6398  140.3977  170.0388 Cl      1  UNL1       -0.0794
     21 C         138.8235  140.6066  159.8501 C.3     1  UNL1        0.1204
     22 N         139.8272  141.3161  160.7099 N.am    1  UNL1       -0.2985
     23 C         139.8847  142.8149  160.7143 C.2     1  UNL1        0.2473
     24 O         138.9386  143.6043  159.8589 O.2     1  UNL1       -0.2701
     25 H         140.4482  140.7980  161.2713 H       1  UNL1        0.1498
     26 C         140.8884  143.5244  161.5741 C.ar    1  UNL1        0.0744
     27 C         142.3482  143.4540  161.2366 C.ar    1  UNL1        0.0792
     28 N         143.3519  144.1636  162.0964 N.ar    1  UNL1       -0.3198
     29 C         142.8958  144.9435  163.2937 C.ar    1  UNL1        0.2577
     30 O         143.8994  145.6530  164.1535 O.2     1  UNL1       -0.2672
     31 C         141.4360  145.0139  163.6312 C.ar    1  UNL1        0.0646
     32 C         140.4323  144.3043  162.7714 C.ar    1  UNL1        0.0819
     33 H         144.3100  144.1173  161.8748 H       1  UNL1        0.1690
     34 C         138.9724  144.3748  163.1090 C.3     1  UNL1        0.4189
     35 F         137.5126  144.4452  163.4466 F       1  UNL1       -0.1659
     36 F         139.1057  143.1359  163.9442 F       1  UNL1       -0.1659
     37 F         138.8391  145.6136  162.2739 F       1  UNL1       -0.1659
@<TRIPOS>BOND
     1    12    13    1
     2    13    14   ar
     3    14    15    1
     4    14    16   ar
     5    16    17   ar
     6    17    18   ar
     7    18    11    1
     8    11     5    1
     9     5     6    1
    10     6     7    1
    11     7     8    1
    12     8     4    1
    13     4     1    1
    14     1     2    1
    15     1    21    1
    16    21    22    1
    17    22    23   am
    18    23    24    2
    19    23    26    1
    20    26    27   ar
    21    27    28   ar
    22    28    29   ar
    23    29    30    2
    24    29    31   ar
    25    31    32   ar
    26    32    34    1
    27    34    35    1
    28    34    36    1
    29    34    37    1
    30     8     9    1
    31     9    10    1
    32    18    19   ar
    33    19    20    1
    34    19    13   ar
    35    10     5    1
    36    32    26   ar
    37     2     3    1
    38    22    25    1
    39    28    33    1
@<TRIPOS>MOLECULE
*****
 37 39 0 0 0
SMALL
GASTEIGER

@<TRIPOS>ATOM
      1 C         138.0717  140.9058  158.1992 C.3     1  UNL1        0.1459
      2 O         136.8358  140.7721  157.3599 O.3     1  UNL1       -0.3813
      3 H         136.3885  141.6309  157.3039 H       1  UNL1        0.2105
      4 C         138.9467  139.7118  158.4414 C.3     1  UNL1        0.1034
      5 C         139.3842  138.0494  162.6002 C.3     1  UNL1        0.1687
      6 C         138.0753  138.6356  162.1606 C.3     1  UNL1        0.0609
      7 C         137.9295  139.1897  160.7743 C.3     1  UNL1        0.0759
      8 N         139.0926  139.1576  159.8276 N.3     1  UNL1       -0.2704
      9 C         140.4015  138.5715  160.2672 C.3     1  UNL1        0.0759
     10 C         140.5473  138.0173  161.6534 C.3     1  UNL1        0.0609
     11 O         139.5301  137.4953  163.9864 O.3     1  UNL1       -0.4782
     12 C         139.8609  140.8609  167.9314 C.3     1  UNL1        0.0329
     13 C         140.5195  139.9101  166.9763 C.ar    1  UNL1        0.0023
     14 C         142.0021  139.6912  167.0387 C.ar    1  UNL1        0.0547
     15 CL        142.8262  140.4232  168.0562 Cl      1  UNL1       -0.0825
     16 C         142.6607  138.7404  166.0837 C.ar    1  UNL1        0.0142
     17 C         141.8368  138.0084  165.0662 C.ar    1  UNL1        0.0386
     18 C         140.3542  138.2273  165.0038 C.ar    1  UNL1        0.1485
     19 C         139.6955  139.1781  165.9589 C.ar    1  UNL1        0.0884
     20 CL        138.2129  139.3970  165.8965 Cl      1  UNL1       -0.0794
     21 C         138.4328  142.2337  158.7964 C.3     1  UNL1        0.1204
     22 N         139.4732  142.3134  159.8740 N.am    1  UNL1       -0.2985
     23 C         139.0826  142.7151  161.2654 C.2     1  UNL1        0.2473
     24 O         137.6516  143.0370  161.5792 O.2     1  UNL1       -0.2701
     25 H         140.4124  142.1021  159.6680 H       1  UNL1        0.1498
     26 C         140.1230  142.7948  162.3430 C.ar    1  UNL1        0.0744
     27 C         140.6968  141.5376  162.9260 C.ar    1  UNL1        0.0792
     28 N         141.7373  141.6173  164.0035 N.ar    1  UNL1       -0.3198
     29 C         142.2038  142.9543  164.4981 C.ar    1  UNL1        0.2577
     30 O         143.2442  143.0340  165.5757 O.2     1  UNL1       -0.2672
     31 C         141.6300  144.2116  163.9151 C.ar    1  UNL1        0.0646
     32 C         140.5896  144.1318  162.8375 C.ar    1  UNL1        0.0819
     33 H         142.1139  140.7921  164.3862 H       1  UNL1        0.1690
     34 C         140.0158  145.3892  162.2545 C.3     1  UNL1        0.4189
     35 F         139.4419  146.6465  161.6716 F       1  UNL1       -0.1659
     36 F         141.0933  145.3972  161.2111 F       1  UNL1       -0.1659
     37 F         138.9382  145.3812  163.2980 F       1  UNL1       -0.1659
@<TRIPOS>BOND
     1    12    13    1
     2    13    14   ar
     3    14    15    1
     4    14    16   ar
     5    16    17   ar
     6    17    18   ar
     7    18    11    1
     8    11     5    1
     9     5     6    1
    10     6     7    1
    11     7     8    1
    12     8     4    1
    13     4     1    1
    14     1     2    1
    15     1    21    1
    16    21    22    1
    17    22    23   am
    18    23    24    2
    19    23    26    1
    20    26    27   ar
    21    27    28   ar
    22    28    29   ar
    23    29    30    2
    24    29    31   ar
    25    31    32   ar
    26    32    34    1
    27    34    35    1
    28    34    36    1
    29    34    37    1
    30     8     9    1
    31     9    10    1
    32    18    19   ar
    33    19    20    1
    34    19    13   ar
    35    10     5    1
    36    32    26   ar
    37     2     3    1
    38    22    25    1
    39    28    33    1
@<TRIPOS>MOLECULE
*****
 37 39 0 0 0
SMALL
GASTEIGER

@<TRIPOS>ATOM
      1 C         140.6571  140.0330  169.3085 C.3     1  UNL1        0.1459
      2 O         140.7903  139.2861  170.6025 O.3     1  UNL1       -0.3813
      3 H         139.9668  138.8075  170.7858 H       1  UNL1        0.2105
      4 C         141.8011  140.8576  168.7973 C.3     1  UNL1        0.1034
      5 C         143.9833  139.6091  165.0651 C.3     1  UNL1        0.1687
      6 C         143.7071  138.6043  166.1440 C.3     1  UNL1        0.0609
      7 C         142.9796  139.0205  167.3881 C.3     1  UNL1        0.0759
      8 N         142.5285  140.4415  167.5532 N.3     1  UNL1       -0.2704
      9 C         142.8048  141.4463  166.4744 C.3     1  UNL1        0.0759
     10 C         143.5322  141.0302  165.2303 C.3     1  UNL1        0.0609
     11 O         144.7107  139.1930  163.8211 O.3     1  UNL1       -0.4782
     12 C         143.5607  141.5020  159.3104 C.3     1  UNL1        0.0329
     13 C         143.4214  140.3385  160.2468 C.ar    1  UNL1        0.0023
     14 C         142.5678  139.1659  159.8642 C.ar    1  UNL1        0.0547
     15 CL        141.8534  139.1569  158.5452 Cl      1  UNL1       -0.0825
     16 C         142.4284  138.0024  160.8006 C.ar    1  UNL1        0.0142
     17 C         143.1427  138.0114  162.1195 C.ar    1  UNL1        0.0386
     18 C         143.9964  139.1840  162.5021 C.ar    1  UNL1        0.1485
     19 C         144.1357  140.3475  161.5657 C.ar    1  UNL1        0.0884
     20 CL        144.9894  141.5201  161.9483 Cl      1  UNL1       -0.0794
     21 C         139.3799  139.9553  168.5257 C.3     1  UNL1        0.1204
     22 N         139.3664  140.3302  167.0734 N.am    1  UNL1       -0.2985
     23 C         138.3882  139.6805  166.1401 C.2     1  UNL1        0.2473
     24 O         137.4236  138.6558  166.6592 O.2     1  UNL1       -0.2701
     25 H         139.9995  141.0028  166.7327 H       1  UNL1        0.1498
     26 C         138.3747  140.0554  164.6878 C.ar    1  UNL1        0.0744
     27 C         137.6133  141.2649  164.2325 C.ar    1  UNL1        0.0792
     28 N         137.5998  141.6398  162.7802 N.ar    1  UNL1       -0.3198
     29 C         138.3477  140.8052  161.7832 C.ar    1  UNL1        0.2577
     30 O         138.3342  141.1801  160.3308 O.2     1  UNL1       -0.2672
     31 C         139.1091  139.5957  162.2385 C.ar    1  UNL1        0.0646
     32 C         139.1226  139.2208  163.6908 C.ar    1  UNL1        0.0819
     33 H         137.1001  142.4336  162.4814 H       1  UNL1        0.1690
     34 C         139.8841  138.0112  164.1461 C.3     1  UNL1        0.4189
     35 F         140.6455  136.8018  164.6014 F       1  UNL1       -0.1659
     36 F         138.6987  137.1471  163.8329 F       1  UNL1       -0.1659
     37 F         141.0694  138.8754  164.4592 F       1  UNL1       -0.1659
@<TRIPOS>BOND
     1    12    13    1
     2    13    14   ar
     3    14    15    1
     4    14    16   ar
     5    16    17   ar
     6    17    18   ar
     7    18    11    1
     8    11     5    1
     9     5     6    1
    10     6     7    1
    11     7     8    1
    12     8     4    1
    13     4     1    1
    14     1     2    1
    15     1    21    1
    16    21    22    1
    17    22    23   am
    18    23    24    2
    19    23    26    1
    20    26    27   ar
    21    27    28   ar
    22    28    29   ar
    23    29    30    2
    24    29    31   ar
    25    31    32   ar
    26    32    34    1
    27    34    35    1
    28    34    36    1
    29    34    37    1
    30     8     9    1
    31     9    10    1
    32    18    19   ar
    33    19    20    1
    34    19    13   ar
    35    10     5    1
    36    32    26   ar
    37     2     3    1
    38    22    25    1
    39    28    33    1
@<TRIPOS>MOLECULE
*****
 37 39 0 0 0
SMALL
GASTEIGER

@<TRIPOS>ATOM
      1 C         142.7738  139.3110  160.1515 C.3     1  UNL1        0.1459
      2 O         144.0207  139.5507  159.3531 O.3     1  UNL1       -0.3813
      3 H         143.9179  140.3599  158.8280 H       1  UNL1        0.2105
      4 C         142.6781  138.1152  161.0520 C.3     1  UNL1        0.1034
      5 C         142.7881  138.6479  165.5190 C.3     1  UNL1        0.1687
      6 C         141.6655  137.8835  164.8823 C.3     1  UNL1        0.0609
      7 C         141.6289  137.7059  163.3932 C.3     1  UNL1        0.0759
      8 N         142.7148  138.2928  162.5410 N.3     1  UNL1       -0.2704
      9 C         143.8373  139.0573  163.1778 C.3     1  UNL1        0.0759
     10 C         143.8740  139.2349  164.6667 C.3     1  UNL1        0.0609
     11 O         142.8247  138.8255  167.0080 O.3     1  UNL1       -0.4782
     12 C         141.2517  141.3990  171.2392 C.3     1  UNL1        0.0329
     13 C         141.4148  141.3243  169.7500 C.ar    1  UNL1        0.0023
     14 C         140.9545  142.4616  168.8871 C.ar    1  UNL1        0.0547
     15 CL        140.3311  143.6737  169.5135 Cl      1  UNL1       -0.0825
     16 C         141.1176  142.3870  167.3979 C.ar    1  UNL1        0.0142
     17 C         141.7410  141.1749  166.7715 C.ar    1  UNL1        0.0386
     18 C         142.2013  140.0376  167.6344 C.ar    1  UNL1        0.1485
     19 C         142.0382  140.1123  169.1236 C.ar    1  UNL1        0.0884
     20 CL        142.4985  138.9749  169.9865 Cl      1  UNL1       -0.0794
     21 C         141.6224  140.2670  160.0495 C.3     1  UNL1        0.1204
     22 N         141.2617  141.1342  161.2190 N.am    1  UNL1       -0.2985
     23 C         139.9710  141.8984  161.2163 C.2     1  UNL1        0.2473
     24 O         139.0410  141.7954  160.0440 O.2     1  UNL1       -0.2701
     25 H         141.8722  141.2019  161.9885 H       1  UNL1        0.1498
     26 C         139.6104  142.7657  162.3859 C.ar    1  UNL1        0.0744
     27 C         140.0407  144.2023  162.4152 C.ar    1  UNL1        0.0792
     28 N         139.6801  145.0695  163.5848 N.ar    1  UNL1       -0.3198
     29 C         138.8891  144.5001  164.7250 C.ar    1  UNL1        0.2577
     30 O         138.5285  145.3673  165.8945 O.2     1  UNL1       -0.2672
     31 C         138.4587  143.0635  164.6956 C.ar    1  UNL1        0.0646
     32 C         138.8194  142.1963  163.5260 C.ar    1  UNL1        0.0819
     33 H         139.9626  146.0124  163.6041 H       1  UNL1        0.1690
     34 C         138.3890  140.7596  163.4967 C.3     1  UNL1        0.4189
     35 F         137.9586  139.3230  163.4674 F       1  UNL1       -0.1659
     36 F         137.1028  141.1583  162.8359 F       1  UNL1       -0.1659
     37 F         139.6751  140.3608  164.1575 F       1  UNL1       -0.1659
@<TRIPOS>BOND
     1    12    13    1
     2    13    14   ar
     3    14    15    1
     4    14    16   ar
     5    16    17   ar
     6    17    18   ar
     7    18    11    1
     8    11     5    1
     9     5     6    1
    10     6     7    1
    11     7     8    1
    12     8     4    1
    13     4     1    1
    14     1     2    1
    15     1    21    1
    16    21    22    1
    17    22    23   am
    18    23    24    2
    19    23    26    1
    20    26    27   ar
    21    27    28   ar
    22    28    29   ar
    23    29    30    2
    24    29    31   ar
    25    31    32   ar
    26    32    34    1
    27    34    35    1
    28    34    36    1
    29    34    37    1
    30     8     9    1
    31     9    10    1
    32    18    19   ar
    33    19    20    1
    34    19    13   ar
    35    10     5    1
    36    32    26   ar
    37     2     3    1
    38    22    25    1
    39    28    33    1
@<TRIPOS>MOLECULE
*****
 37 39 0 0 0
SMALL
GASTEIGER

@<TRIPOS>ATOM
      1 C         142.0813  142.0584  168.5183 C.3     1  UNL1        0.1459
      2 O         141.3114  143.0935  169.2837 O.3     1  UNL1       -0.3813
      3 H         141.6763  143.9724  169.0959 H       1  UNL1        0.2105
      4 C         141.7121  140.6094  168.6367 C.3     1  UNL1        0.1034
      5 C         141.6040  138.0078  164.9666 C.3     1  UNL1        0.1687
      6 C         142.8614  138.1076  165.7784 C.3     1  UNL1        0.0609
      7 C         142.8974  138.9748  167.0018 C.3     1  UNL1        0.0759
      8 N         141.6761  139.7422  167.4134 N.3     1  UNL1       -0.2704
      9 C         140.4187  139.6424  166.6016 C.3     1  UNL1        0.0759
     10 C         140.3826  138.7752  165.3782 C.3     1  UNL1        0.0609
     11 O         141.5679  137.1406  163.7433 O.3     1  UNL1       -0.4782
     12 C         143.1295  139.1643  159.2194 C.3     1  UNL1        0.0329
     13 C         142.0238  138.7529  160.1457 C.ar    1  UNL1        0.0023
     14 C         140.5932  138.9418  159.7364 C.ar    1  UNL1        0.0547
     15 CL        140.2682  139.5423  158.4007 Cl      1  UNL1       -0.0825
     16 C         139.4874  138.5304  160.6627 C.ar    1  UNL1        0.0142
     17 C         139.8123  137.9300  161.9983 C.ar    1  UNL1        0.0386
     18 C         141.2429  137.7410  162.4076 C.ar    1  UNL1        0.1485
     19 C         142.3487  138.1525  161.4813 C.ar    1  UNL1        0.0884
     20 CL        143.7794  137.9635  161.8906 Cl      1  UNL1       -0.0794
     21 C         143.2203  142.4724  167.6344 C.3     1  UNL1        0.1204
     22 N         143.0311  142.5363  166.1478 N.am    1  UNL1       -0.2985
     23 C         143.9932  143.3168  165.3021 C.2     1  UNL1        0.2473
     24 O         145.1446  144.0334  165.9432 O.2     1  UNL1       -0.2701
     25 H         142.2755  142.0660  165.7270 H       1  UNL1        0.1498
     26 C         143.8040  143.3808  163.8155 C.ar    1  UNL1        0.0744
     27 C         143.1597  144.5836  163.1925 C.ar    1  UNL1        0.0792
     28 N         142.9705  144.6475  161.7059 N.ar    1  UNL1       -0.3198
     29 C         143.4256  143.5087  160.8422 C.ar    1  UNL1        0.2577
     30 O         143.2364  143.5727  159.3556 O.2     1  UNL1       -0.2672
     31 C         144.0699  142.3060  161.4652 C.ar    1  UNL1        0.0646
     32 C         144.2591  142.2420  162.9518 C.ar    1  UNL1        0.0819
     33 H         142.5476  145.4370  161.2970 H       1  UNL1        0.1690
     34 C         144.9035  141.0391  163.5748 C.3     1  UNL1        0.4189
     35 F         145.5479  139.8364  164.1978 F       1  UNL1       -0.1659
     36 F         143.5530  140.4158  163.7683 F       1  UNL1       -0.1659
     37 F         146.2540  141.6625  163.3814 F       1  UNL1       -0.1659
@<TRIPOS>BOND
     1    12    13    1
     2    13    14   ar
     3    14    15    1
     4    14    16   ar
     5    16    17   ar
     6    17    18   ar
     7    18    11    1
     8    11     5    1
     9     5     6    1
    10     6     7    1
    11     7     8    1
    12     8     4    1
    13     4     1    1
    14     1     2    1
    15     1    21    1
    16    21    22    1
    17    22    23   am
    18    23    24    2
    19    23    26    1
    20    26    27   ar
    21    27    28   ar
    22    28    29   ar
    23    29    30    2
    24    29    31   ar
    25    31    32   ar
    26    32    34    1
    27    34    35    1
    28    34    36    1
    29    34    37    1
    30     8     9    1
    31     9    10    1
    32    18    19   ar
    33    19    20    1
    34    19    13   ar
    35    10     5    1
    36    32    26   ar
    37     2     3    1
    38    22    25    1
    39    28    33    1
@<TRIPOS>MOLECULE
*****
 37 39 0 0 0
SMALL
GASTEIGER

@<TRIPOS>ATOM
      1 C         138.4766  141.7684  158.5792 C.3     1  UNL1        0.1459
      2 O         138.4487  142.4751  157.2564 O.3     1  UNL1       -0.3813
      3 H         138.4090  143.4332  157.4024 H       1  UNL1        0.2105
      4 C         138.5383  140.2705  158.6282 C.3     1  UNL1        0.1034
      5 C         139.3864  138.1797  162.5216 C.3     1  UNL1        0.1687
      6 C         140.4942  138.4091  161.5366 C.3     1  UNL1        0.0609
      7 C         140.2115  139.1060  160.2388 C.3     1  UNL1        0.0759
      8 N         138.8210  139.5736  159.9260 N.3     1  UNL1       -0.2704
      9 C         137.7132  139.3443  160.9110 C.3     1  UNL1        0.0759
     10 C         137.9959  138.6473  162.2088 C.3     1  UNL1        0.0609
     11 O         139.6691  137.4828  163.8194 O.3     1  UNL1       -0.4782
     12 C         142.0063  140.3916  167.4356 C.3     1  UNL1        0.0329
     13 C         140.7798  139.7010  166.9172 C.ar    1  UNL1        0.0023
     14 C         139.4953  139.7743  167.6884 C.ar    1  UNL1        0.0547
     15 CL        139.4374  140.5382  168.9781 Cl      1  UNL1       -0.0825
     16 C         138.2688  139.0838  167.1699 C.ar    1  UNL1        0.0142
     17 C         138.3267  138.3199  165.8803 C.ar    1  UNL1        0.0386
     18 C         139.6112  138.2466  165.1091 C.ar    1  UNL1        0.1485
     19 C         140.8377  138.9372  165.6276 C.ar    1  UNL1        0.0884
     20 CL        142.1222  138.8639  164.8563 Cl      1  UNL1       -0.0794
     21 C         138.4427  142.5598  159.8531 C.3     1  UNL1        0.1204
     22 N         139.6595  142.6254  160.7278 N.am    1  UNL1       -0.2985
     23 C         139.7461  143.6538  161.8163 C.2     1  UNL1        0.2473
     24 O         138.6160  144.6166  162.0300 O.2     1  UNL1       -0.2701
     25 H         140.4012  141.9934  160.5875 H       1  UNL1        0.1498
     26 C         140.9629  143.7194  162.6910 C.ar    1  UNL1        0.0744
     27 C         142.1793  144.4657  162.2291 C.ar    1  UNL1        0.0792
     28 N         143.3961  144.5313  163.1038 N.ar    1  UNL1       -0.3198
     29 C         143.3965  143.8506  164.4404 C.ar    1  UNL1        0.2577
     30 O         144.6133  143.9161  165.3151 O.2     1  UNL1       -0.2672
     31 C         142.1801  143.1042  164.9023 C.ar    1  UNL1        0.0646
     32 C         140.9633  143.0386  164.0276 C.ar    1  UNL1        0.0819
     33 H         144.1944  145.0212  162.8007 H       1  UNL1        0.1690
     34 C         139.7469  142.2922  164.4895 C.3     1  UNL1        0.4189
     35 F         138.5306  141.5458  164.9514 F       1  UNL1       -0.1659
     36 F         139.3962  143.4291  165.4029 F       1  UNL1       -0.1659
     37 F         140.0977  141.1553  163.5761 F       1  UNL1       -0.1659
@<TRIPOS>BOND
     1    12    13    1
     2    13    14   ar
     3    14    15    1
     4    14    16   ar
     5    16    17   ar
     6    17    18   ar
     7    18    11    1
     8    11     5    1
     9     5     6    1
    10     6     7    1
    11     7     8    1
    12     8     4    1
    13     4     1    1
    14     1     2    1
    15     1    21    1
    16    21    22    1
    17    22    23   am
    18    23    24    2
    19    23    26    1
    20    26    27   ar
    21    27    28   ar
    22    28    29   ar
    23    29    30    2
    24    29    31   ar
    25    31    32   ar
    26    32    34    1
    27    34    35    1
    28    34    36    1
    29    34    37    1
    30     8     9    1
    31     9    10    1
    32    18    19   ar
    33    19    20    1
    34    19    13   ar
    35    10     5    1
    36    32    26   ar
    37     2     3    1
    38    22    25    1
    39    28    33    1
@<TRIPOS>MOLECULE
*****
 37 39 0 0 0
SMALL
GASTEIGER

@<TRIPOS>ATOM
      1 C         142.8941  140.3121  169.7203 C.3     1  UNL1        0.1459
      2 O         143.0237  140.0522  171.1918 O.3     1  UNL1       -0.3813
      3 H         142.8706  139.1108  171.3686 H       1  UNL1        0.2105
      4 C         143.0865  141.6996  169.1839 C.3     1  UNL1        0.1034
      5 C         140.4642  143.2078  165.8524 C.3     1  UNL1        0.1687
      6 C         139.9186  143.0982  167.2453 C.3     1  UNL1        0.0609
      7 C         140.7927  142.5954  168.3558 C.3     1  UNL1        0.0759
      8 N         142.2124  142.2023  168.0734 N.3     1  UNL1       -0.2704
      9 C         142.7581  142.3120  166.6805 C.3     1  UNL1        0.0759
     10 C         141.8840  142.8147  165.5700 C.3     1  UNL1        0.0609
     11 O         139.5902  143.7105  164.7419 O.3     1  UNL1       -0.4782
     12 C         138.6210  142.3795  159.8135 C.3     1  UNL1        0.0329
     13 C         138.5311  142.0824  161.2810 C.ar    1  UNL1        0.0023
     14 C         137.8667  140.8227  161.7519 C.ar    1  UNL1        0.0547
     15 CL        137.2922  139.8600  160.7552 Cl      1  UNL1       -0.0825
     16 C         137.7768  140.5256  163.2194 C.ar    1  UNL1        0.0142
     17 C         138.3512  141.4882  164.2161 C.ar    1  UNL1        0.0386
     18 C         139.0156  142.7478  163.7452 C.ar    1  UNL1        0.1485
     19 C         139.1056  143.0449  162.2777 C.ar    1  UNL1        0.0884
     20 CL        139.7700  144.3047  161.8068 Cl      1  UNL1       -0.0794
     21 C         142.5720  139.1844  168.7850 C.3     1  UNL1        0.1204
     22 N         142.6275  139.4011  167.3017 N.am    1  UNL1       -0.2985
     23 C         143.4319  138.4755  166.4381 C.2     1  UNL1        0.2473
     24 O         144.1809  137.3331  167.0576 O.2     1  UNL1       -0.2701
     25 H         142.1358  140.1509  166.8951 H       1  UNL1        0.1498
     26 C         143.4874  138.6922  164.9549 C.ar    1  UNL1        0.0744
     27 C         144.7383  139.2244  164.3209 C.ar    1  UNL1        0.0792
     28 N         144.7937  139.4411  162.8377 N.ar    1  UNL1       -0.3198
     29 C         143.5983  139.1256  161.9884 C.ar    1  UNL1        0.2577
     30 O         143.6537  139.3424  160.5052 O.2     1  UNL1       -0.2672
     31 C         142.3474  138.5935  162.6224 C.ar    1  UNL1        0.0646
     32 C         142.2919  138.3768  164.1056 C.ar    1  UNL1        0.0819
     33 H         145.6148  139.7904  162.4216 H       1  UNL1        0.1690
     34 C         141.0409  137.8446  164.7395 C.3     1  UNL1        0.4189
     35 F         139.7899  137.3124  165.3735 F       1  UNL1       -0.1659
     36 F         141.5288  136.4424  164.5254 F       1  UNL1       -0.1659
     37 F         140.5530  139.2467  164.9537 F       1  UNL1       -0.1659
@<TRIPOS>BOND
     1    12    13    1
     2    13    14   ar
     3    14    15    1
     4    14    16   ar
     5    16    17   ar
     6    17    18   ar
     7    18    11    1
     8    11     5    1
     9     5     6    1
    10     6     7    1
    11     7     8    1
    12     8     4    1
    13     4     1    1
    14     1     2    1
    15     1    21    1
    16    21    22    1
    17    22    23   am
    18    23    24    2
    19    23    26    1
    20    26    27   ar
    21    27    28   ar
    22    28    29   ar
    23    29    30    2
    24    29    31   ar
    25    31    32   ar
    26    32    34    1
    27    34    35    1
    28    34    36    1
    29    34    37    1
    30     8     9    1
    31     9    10    1
    32    18    19   ar
    33    19    20    1
    34    19    13   ar
    35    10     5    1
    36    32    26   ar
    37     2     3    1
    38    22    25    1
    39    28    33    1
@<TRIPOS>MOLECULE
*****
 37 39 0 0 0
SMALL
GASTEIGER

@<TRIPOS>ATOM
      1 C         138.7224  141.8188  158.4752 C.3     1  UNL1        0.1459
      2 O         139.1074  142.3382  157.1218 O.3     1  UNL1       -0.3813
      3 H         139.3341  143.2790  157.1890 H       1  UNL1        0.2105
      4 C         138.3258  140.3818  158.6421 C.3     1  UNL1        0.1034
      5 C         139.2911  138.2105  162.4636 C.3     1  UNL1        0.1687
      6 C         140.3226  138.3159  161.3797 C.3     1  UNL1        0.0609
      7 C         140.0008  139.0397  160.1059 C.3     1  UNL1        0.0759
      8 N         138.6475  139.6581  159.9159 N.3     1  UNL1       -0.2704
      9 C         137.6159  139.5526  160.9998 C.3     1  UNL1        0.0759
     10 C         137.9377  138.8289  162.2736 C.3     1  UNL1        0.0609
     11 O         139.6128  137.4867  163.7374 O.3     1  UNL1       -0.4782
     12 C         139.7368  140.5025  167.9670 C.3     1  UNL1        0.0329
     13 C         140.4529  139.6865  166.9319 C.ar    1  UNL1        0.0023
     14 C         141.9470  139.5623  166.9767 C.ar    1  UNL1        0.0547
     15 CL        142.7252  140.2542  168.0565 Cl      1  UNL1       -0.0825
     16 C         142.6631  138.7463  165.9416 C.ar    1  UNL1        0.0142
     17 C         141.8851  138.0544  164.8619 C.ar    1  UNL1        0.0386
     18 C         140.3909  138.1786  164.8172 C.ar    1  UNL1        0.1485
     19 C         139.6748  138.9946  165.8522 C.ar    1  UNL1        0.0884
     20 CL        138.1806  139.1188  165.8074 Cl      1  UNL1       -0.0794
     21 C         138.7340  142.7363  159.6619 C.3     1  UNL1        0.1204
     22 N         139.8667  142.6786  160.6435 N.am    1  UNL1       -0.2985
     23 C         140.1017  143.8219  161.5856 C.2     1  UNL1        0.2473
     24 O         139.2040  145.0229  161.5461 O.2     1  UNL1       -0.2701
     25 H         140.4560  141.8904  160.6694 H       1  UNL1        0.1498
     26 C         141.2345  143.7642  162.5672 C.ar    1  UNL1        0.0744
     27 C         142.5794  144.3135  162.1936 C.ar    1  UNL1        0.0792
     28 N         143.7121  144.2559  163.1752 N.ar    1  UNL1       -0.3198
     29 C         143.5000  143.6489  164.5304 C.ar    1  UNL1        0.2577
     30 O         144.6328  143.5912  165.5120 O.2     1  UNL1       -0.2672
     31 C         142.1552  143.0996  164.9039 C.ar    1  UNL1        0.0646
     32 C         141.0224  143.1573  163.9223 C.ar    1  UNL1        0.0819
     33 H         144.5948  144.6164  162.9300 H       1  UNL1        0.1690
     34 C         139.6775  142.6079  164.2960 C.3     1  UNL1        0.4189
     35 F         138.3327  142.0587  164.6696 F       1  UNL1       -0.1659
     36 F         140.0395  141.2946  163.6683 F       1  UNL1       -0.1659
     37 F         139.3155  143.9213  164.9237 F       1  UNL1       -0.1659
@<TRIPOS>BOND
     1    12    13    1
     2    13    14   ar
     3    14    15    1
     4    14    16   ar
     5    16    17   ar
     6    17    18   ar
     7    18    11    1
     8    11     5    1
     9     5     6    1
    10     6     7    1
    11     7     8    1
    12     8     4    1
    13     4     1    1
    14     1     2    1
    15     1    21    1
    16    21    22    1
    17    22    23   am
    18    23    24    2
    19    23    26    1
    20    26    27   ar
    21    27    28   ar
    22    28    29   ar
    23    29    30    2
    24    29    31   ar
    25    31    32   ar
    26    32    34    1
    27    34    35    1
    28    34    36    1
    29    34    37    1
    30     8     9    1
    31     9    10    1
    32    18    19   ar
    33    19    20    1
    34    19    13   ar
    35    10     5    1
    36    32    26   ar
    37     2     3    1
    38    22    25    1
    39    28    33    1
