@<TRIPOS>MOLECULE
*****
 25 28 0 0 0
SMALL
GASTEIGER

@<TRIPOS>ATOM
      1 C         142.2919  144.2105  163.3093 C.3     1  UNL1        0.1084
      2 C         143.5826  144.7278  163.8716 C.3     1  UNL1        0.0966
      3 C         143.9379  143.8895  165.0637 C.2     1  UNL1        0.2299
      4 O         145.1514  144.0572  165.9293 O.2     1  UNL1       -0.2745
      5 N         142.8667  142.8541  165.2381 N.am    1  UNL1       -0.2581
      6 C         141.8494  143.0525  164.1538 C.3     1  UNL1        0.1079
      7 C         142.8209  141.8046  166.3087 C.ar    1  UNL1        0.0540
      8 C         142.8546  142.2056  167.7538 C.ar    1  UNL1        0.0172
      9 C         142.8088  141.1560  168.8246 C.ar    1  UNL1        0.0309
     10 C         142.7294  139.7057  168.4503 C.ar    1  UNL1        0.1402
     11 F         142.6836  138.6562  169.5210 F       1  UNL1       -0.2042
     12 C         142.6957  139.3048  167.0052 C.ar    1  UNL1        0.0309
     13 C         142.7415  140.3542  165.9345 C.ar    1  UNL1        0.0172
     14 C         141.0111  145.3477  159.8262 C.ar    1  UNL1        0.2033
     15 N         139.9084  145.8406  160.7156 N.ar    1  UNL1       -0.0560
     16 O         140.2539  145.4746  162.1286 O.2     1  UNL1       -0.3370
     17 C         141.5702  144.7555  162.1125 C.ar    1  UNL1        0.2383
     18 N         142.0382  144.6771  160.6895 N.ar    1  UNL1       -0.1907
     19 C         138.9663  147.1209  155.3906 C.3     1  UNL1        0.0310
     20 C         140.0530  146.3856  156.1174 C.ar    1  UNL1       -0.0218
     21 C         141.2041  145.8015  155.3533 C.ar    1  UNL1       -0.0043
     22 C         142.2908  145.0662  156.0801 C.ar    1  UNL1       -0.0002
     23 C         142.2265  144.9149  157.5711 C.ar    1  UNL1        0.0031
     24 C         141.0755  145.4990  158.3352 C.ar    1  UNL1        0.0388
     25 C         139.9887  146.2343  157.6084 C.ar    1  UNL1       -0.0011
@<TRIPOS>BOND
     1    19    20    1
     2    20    21   ar
     3    21    22   ar
     4    22    23   ar
     5    23    24   ar
     6    24    14    1
     7    14    15   ar
     8    15    16   ar
     9    16    17   ar
    10    17     1    1
    11     1     2    1
    12     2     3    1
    13     3     4    2
    14     3     5   am
    15     5     7    1
    16     7     8   ar
    17     8     9   ar
    18     9    10   ar
    19    10    11    1
    20    10    12   ar
    21    12    13   ar
    22     5     6    1
    23    17    18   ar
    24    24    25   ar
    25    25    20   ar
    26    18    14   ar
    27     6     1    1
    28    13     7   ar
@<TRIPOS>MOLECULE
*****
 25 28 0 0 0
SMALL
GASTEIGER

@<TRIPOS>ATOM
      1 C         141.1053  143.9603  163.6482 C.3     1  UNL1        0.1084
      2 C         142.5171  143.7139  164.0908 C.3     1  UNL1        0.0966
      3 C         142.4717  142.9669  165.3908 C.2     1  UNL1        0.2299
      4 O         143.6579  142.5146  166.1896 O.2     1  UNL1       -0.2745
      5 N         141.0317  142.7516  165.7516 N.am    1  UNL1       -0.2581
      6 C         140.1873  143.3655  164.6746 C.3     1  UNL1        0.1079
      7 C         140.5253  142.0462  166.9746 C.ar    1  UNL1        0.0540
      8 C         140.5988  142.7194  168.3131 C.ar    1  UNL1        0.0172
      9 C         140.0924  142.0140  169.5362 C.ar    1  UNL1        0.0309
     10 C         139.5124  140.6355  169.4208 C.ar    1  UNL1        0.1402
     11 F         139.0059  139.9301  170.6439 F       1  UNL1       -0.2042
     12 C         139.4388  139.9624  168.0823 C.ar    1  UNL1        0.0309
     13 C         139.9453  140.6677  166.8592 C.ar    1  UNL1        0.0172
     14 C         140.5433  145.3857  160.0820 C.ar    1  UNL1        0.2033
     15 N         139.5341  146.1680  160.8692 N.ar    1  UNL1       -0.0560
     16 O         139.6218  145.7293  162.3009 O.2     1  UNL1       -0.3370
     17 C         140.6852  144.6758  162.3985 C.ar    1  UNL1        0.2383
     18 N         141.2547  144.4635  161.0272 N.ar    1  UNL1       -0.1907
     19 C         139.1591  147.1885  155.4093 C.3     1  UNL1        0.0310
     20 C         140.1045  146.4062  156.2720 C.ar    1  UNL1       -0.0218
     21 C         141.3031  145.7429  155.6610 C.ar    1  UNL1       -0.0043
     22 C         142.2485  144.9606  156.5237 C.ar    1  UNL1       -0.0002
     23 C         141.9953  144.8415  157.9973 C.ar    1  UNL1        0.0031
     24 C         140.7966  145.5048  158.6083 C.ar    1  UNL1        0.0388
     25 C         139.8512  146.2871  157.7456 C.ar    1  UNL1       -0.0011
@<TRIPOS>BOND
     1    19    20    1
     2    20    21   ar
     3    21    22   ar
     4    22    23   ar
     5    23    24   ar
     6    24    14    1
     7    14    15   ar
     8    15    16   ar
     9    16    17   ar
    10    17     1    1
    11     1     2    1
    12     2     3    1
    13     3     4    2
    14     3     5   am
    15     5     7    1
    16     7     8   ar
    17     8     9   ar
    18     9    10   ar
    19    10    11    1
    20    10    12   ar
    21    12    13   ar
    22     5     6    1
    23    17    18   ar
    24    24    25   ar
    25    25    20   ar
    26    18    14   ar
    27     6     1    1
    28    13     7   ar
@<TRIPOS>MOLECULE
*****
 25 28 0 0 0
SMALL
GASTEIGER

@<TRIPOS>ATOM
      1 C         139.2518  139.4570  165.7387 C.3     1  UNL1        0.1084
      2 C         138.4197  139.0845  166.9298 C.3     1  UNL1        0.0966
      3 C         138.9953  139.7740  168.1312 C.2     1  UNL1        0.2299
      4 O         138.4744  139.6812  169.5347 O.2     1  UNL1       -0.2745
      5 N         140.1831  140.5726  167.6825 N.am    1  UNL1       -0.2581
      6 C         140.3416  140.3766  166.2039 C.3     1  UNL1        0.1079
      7 C         141.0586  141.4185  168.5587 C.ar    1  UNL1        0.0540
      8 C         142.4795  141.0118  168.8155 C.ar    1  UNL1        0.0172
      9 C         143.3550  141.8578  169.6918 C.ar    1  UNL1        0.0309
     10 C         142.8098  143.1104  170.3111 C.ar    1  UNL1        0.1402
     11 F         143.6853  143.9564  171.1874 F       1  UNL1       -0.2042
     12 C         141.3890  143.5171  170.0543 C.ar    1  UNL1        0.0309
     13 C         140.5134  142.6712  169.1781 C.ar    1  UNL1        0.0172
     14 C         138.8715  138.9587  161.9082 C.ar    1  UNL1        0.2033
     15 N         138.5189  137.5915  162.4147 N.ar    1  UNL1       -0.0560
     16 O         138.6185  137.6117  163.9113 O.2     1  UNL1       -0.3370
     17 C         139.0326  138.9915  164.3297 C.ar    1  UNL1        0.2383
     18 N         139.1889  139.8239  163.0917 N.ar    1  UNL1       -0.1907
     19 C         140.4372  138.1819  157.0148 C.3     1  UNL1        0.0310
     20 C         139.6842  138.9973  158.0239 C.ar    1  UNL1       -0.0218
     21 C         138.9610  140.2395  157.5953 C.ar    1  UNL1       -0.0043
     22 C         138.2080  141.0549  158.6043 C.ar    1  UNL1       -0.0002
     23 C         138.1782  140.6280  160.0419 C.ar    1  UNL1        0.0031
     24 C         138.9013  139.3857  160.4705 C.ar    1  UNL1        0.0388
     25 C         139.6543  138.5703  159.4615 C.ar    1  UNL1       -0.0011
@<TRIPOS>BOND
     1    19    20    1
     2    20    21   ar
     3    21    22   ar
     4    22    23   ar
     5    23    24   ar
     6    24    14    1
     7    14    15   ar
     8    15    16   ar
     9    16    17   ar
    10    17     1    1
    11     1     2    1
    12     2     3    1
    13     3     4    2
    14     3     5   am
    15     5     7    1
    16     7     8   ar
    17     8     9   ar
    18     9    10   ar
    19    10    11    1
    20    10    12   ar
    21    12    13   ar
    22     5     6    1
    23    17    18   ar
    24    24    25   ar
    25    25    20   ar
    26    18    14   ar
    27     6     1    1
    28    13     7   ar
@<TRIPOS>MOLECULE
*****
 25 28 0 0 0
SMALL
GASTEIGER

@<TRIPOS>ATOM
      1 C         142.7678  139.2771  165.2389 C.3     1  UNL1        0.1084
      2 C         143.3639  138.4660  166.3510 C.3     1  UNL1        0.0966
      3 C         142.8559  139.0170  167.6504 C.2     1  UNL1        0.2299
      4 O         143.1979  138.5061  169.0185 O.2     1  UNL1       -0.2745
      5 N         141.9458  140.1686  167.3413 N.am    1  UNL1       -0.2581
      6 C         141.8914  140.3293  165.8510 C.3     1  UNL1        0.1079
      7 C         141.2180  141.0114  168.3462 C.ar    1  UNL1        0.0540
      8 C         140.0507  140.4426  169.0972 C.ar    1  UNL1        0.0172
      9 C         139.3228  141.2855  170.1022 C.ar    1  UNL1        0.0309
     10 C         139.7622  142.6970  170.3560 C.ar    1  UNL1        0.1402
     11 F         139.0344  143.5398  171.3610 F       1  UNL1       -0.2042
     12 C         140.9295  143.2657  169.6051 C.ar    1  UNL1        0.0309
     13 C         141.6574  142.4230  168.6001 C.ar    1  UNL1        0.0172
     14 C         142.6349  138.6838  161.4054 C.ar    1  UNL1        0.2033
     15 N         144.1116  138.8287  161.6252 N.ar    1  UNL1       -0.0560
     16 O         144.3412  139.0686  163.0880 O.2     1  UNL1       -0.3370
     17 C         143.0063  139.0720  163.7722 C.ar    1  UNL1        0.2383
     18 N         141.9518  138.8342  162.7323 N.ar    1  UNL1       -0.1907
     19 C         142.8722  137.1506  156.4463 C.3     1  UNL1        0.0310
     20 C         142.0785  137.6661  157.6101 C.ar    1  UNL1       -0.0218
     21 C         140.6099  137.9305  157.4581 C.ar    1  UNL1       -0.0043
     22 C         139.8162  138.4460  158.6218 C.ar    1  UNL1       -0.0002
     23 C         140.4912  138.6971  159.9376 C.ar    1  UNL1        0.0031
     24 C         141.9598  138.4327  160.0896 C.ar    1  UNL1        0.0388
     25 C         142.7535  137.9172  158.9258 C.ar    1  UNL1       -0.0011
@<TRIPOS>BOND
     1    19    20    1
     2    20    21   ar
     3    21    22   ar
     4    22    23   ar
     5    23    24   ar
     6    24    14    1
     7    14    15   ar
     8    15    16   ar
     9    16    17   ar
    10    17     1    1
    11     1     2    1
    12     2     3    1
    13     3     4    2
    14     3     5   am
    15     5     7    1
    16     7     8   ar
    17     8     9   ar
    18     9    10   ar
    19    10    11    1
    20    10    12   ar
    21    12    13   ar
    22     5     6    1
    23    17    18   ar
    24    24    25   ar
    25    25    20   ar
    26    18    14   ar
    27     6     1    1
    28    13     7   ar
@<TRIPOS>MOLECULE
*****
 25 28 0 0 0
SMALL
GASTEIGER

@<TRIPOS>ATOM
      1 C         140.1790  144.3053  162.8512 C.3     1  UNL1        0.1084
      2 C         139.3050  145.2119  163.6661 C.3     1  UNL1        0.0966
      3 C         139.1321  144.5937  165.0217 C.2     1  UNL1        0.2299
      4 O         138.3325  145.1641  166.1554 O.2     1  UNL1       -0.2745
      5 N         139.8993  143.3049  165.0447 N.am    1  UNL1       -0.2581
      6 C         140.5463  143.1267  163.7032 C.3     1  UNL1        0.1079
      7 C         140.0015  142.3603  166.2053 C.ar    1  UNL1        0.0540
      8 C         140.6350  142.8133  167.4874 C.ar    1  UNL1        0.0172
      9 C         140.7372  141.8686  168.6482 C.ar    1  UNL1        0.0309
     10 C         140.2059  140.4712  168.5268 C.ar    1  UNL1        0.1402
     11 F         140.3081  139.5266  169.6876 F       1  UNL1       -0.2042
     12 C         139.5724  140.0183  167.2449 C.ar    1  UNL1        0.0309
     13 C         139.4702  140.9628  166.0841 C.ar    1  UNL1        0.0172
     14 C         140.5569  144.8723  159.0300 C.ar    1  UNL1        0.2033
     15 N         141.9897  144.9129  159.4722 N.ar    1  UNL1       -0.0560
     16 O         142.0226  144.7054  160.9574 O.2     1  UNL1       -0.3370
     17 C         140.6100  144.5366  161.4332 C.ar    1  UNL1        0.2383
     18 N         139.7043  144.6397  160.2420 N.ar    1  UNL1       -0.1907
     19 C         139.5069  147.9203  154.9549 C.3     1  UNL1        0.0310
     20 C         139.5385  146.5596  155.5854 C.ar    1  UNL1       -0.0218
     21 C         139.0767  145.3623  154.8088 C.ar    1  UNL1       -0.0043
     22 C         139.1083  144.0016  155.4393 C.ar    1  UNL1       -0.0002
     23 C         139.6017  143.8382  156.8464 C.ar    1  UNL1        0.0031
     24 C         140.0635  145.0356  157.6229 C.ar    1  UNL1        0.0388
     25 C         140.0319  146.3963  156.9924 C.ar    1  UNL1       -0.0011
@<TRIPOS>BOND
     1    19    20    1
     2    20    21   ar
     3    21    22   ar
     4    22    23   ar
     5    23    24   ar
     6    24    14    1
     7    14    15   ar
     8    15    16   ar
     9    16    17   ar
    10    17     1    1
    11     1     2    1
    12     2     3    1
    13     3     4    2
    14     3     5   am
    15     5     7    1
    16     7     8   ar
    17     8     9   ar
    18     9    10   ar
    19    10    11    1
    20    10    12   ar
    21    12    13   ar
    22     5     6    1
    23    17    18   ar
    24    24    25   ar
    25    25    20   ar
    26    18    14   ar
    27     6     1    1
    28    13     7   ar
@<TRIPOS>MOLECULE
*****
 25 28 0 0 0
SMALL
GASTEIGER

@<TRIPOS>ATOM
      1 C         142.6873  138.3447  160.9277 C.3     1  UNL1        0.1084
      2 C         143.7546  138.4846  161.9724 C.3     1  UNL1        0.0966
      3 C         143.0828  138.6029  163.3083 C.2     1  UNL1        0.2299
      4 O         143.7724  138.7605  164.6310 O.2     1  UNL1       -0.2745
      5 N         141.6004  138.5361  163.0892 N.am    1  UNL1       -0.2581
      6 C         141.3560  138.3764  161.6179 C.3     1  UNL1        0.1079
      7 C         140.5473  138.6150  164.1545 C.ar    1  UNL1        0.0540
      8 C         140.4252  139.8492  164.9983 C.ar    1  UNL1        0.0172
      9 C         139.3721  139.9281  166.0636 C.ar    1  UNL1        0.0309
     10 C         138.4413  138.7729  166.2850 C.ar    1  UNL1        0.1402
     11 F         137.3882  138.8519  167.3504 F       1  UNL1       -0.2042
     12 C         138.5634  137.5388  165.4413 C.ar    1  UNL1        0.0309
     13 C         139.6165  137.4598  164.3760 C.ar    1  UNL1        0.0172
     14 C         142.8523  137.3427  157.1814 C.ar    1  UNL1        0.2033
     15 N         143.6633  138.6047  157.1800 N.ar    1  UNL1       -0.0560
     16 O         143.7002  139.1336  158.5831 O.2     1  UNL1       -0.3370
     17 C         142.9120  138.1985  159.4518 C.ar    1  UNL1        0.2383
     18 N         142.3880  137.0918  158.5855 N.ar    1  UNL1       -0.1907
     19 C         141.9552  132.6567  155.1231 C.3     1  UNL1        0.0310
     20 C         142.1089  134.1398  154.9591 C.ar    1  UNL1       -0.0218
     21 C         141.9677  134.7629  153.6021 C.ar    1  UNL1       -0.0043
     22 C         142.1214  136.2460  153.4381 C.ar    1  UNL1       -0.0002
     23 C         142.4163  137.1059  154.6312 C.ar    1  UNL1        0.0031
     24 C         142.5574  136.4828  155.9882 C.ar    1  UNL1        0.0388
     25 C         142.4038  134.9997  156.1522 C.ar    1  UNL1       -0.0011
@<TRIPOS>BOND
     1    19    20    1
     2    20    21   ar
     3    21    22   ar
     4    22    23   ar
     5    23    24   ar
     6    24    14    1
     7    14    15   ar
     8    15    16   ar
     9    16    17   ar
    10    17     1    1
    11     1     2    1
    12     2     3    1
    13     3     4    2
    14     3     5   am
    15     5     7    1
    16     7     8   ar
    17     8     9   ar
    18     9    10   ar
    19    10    11    1
    20    10    12   ar
    21    12    13   ar
    22     5     6    1
    23    17    18   ar
    24    24    25   ar
    25    25    20   ar
    26    18    14   ar
    27     6     1    1
    28    13     7   ar
@<TRIPOS>MOLECULE
*****
 25 28 0 0 0
SMALL
GASTEIGER

@<TRIPOS>ATOM
      1 C         139.7425  143.5148  161.3077 C.3     1  UNL1        0.1084
      2 C         138.3729  142.9031  161.2974 C.3     1  UNL1        0.0966
      3 C         138.1662  142.2073  162.6101 C.2     1  UNL1        0.2299
      4 O         136.9340  141.4608  163.0278 O.2     1  UNL1       -0.2745
      5 N         139.4080  142.3889  163.4316 N.am    1  UNL1       -0.2581
      6 C         140.3821  143.1970  162.6267 C.3     1  UNL1        0.1079
      7 C         139.6356  141.8560  164.8151 C.ar    1  UNL1        0.0540
      8 C         139.4476  140.3946  165.0962 C.ar    1  UNL1        0.0172
      9 C         139.6751  139.8616  166.4798 C.ar    1  UNL1        0.0309
     10 C         140.0907  140.7901  167.5821 C.ar    1  UNL1        0.1402
     11 F         140.3183  140.2571  168.9657 F       1  UNL1       -0.2042
     12 C         140.2787  142.2515  167.3011 C.ar    1  UNL1        0.0309
     13 C         140.0511  142.7844  165.9176 C.ar    1  UNL1        0.0172
     14 C         140.6561  145.5494  158.1310 C.ar    1  UNL1        0.2033
     15 N         141.9814  145.4950  158.8315 N.ar    1  UNL1       -0.0560
     16 O         141.8005  144.7263  160.1067 O.2     1  UNL1       -0.3370
     17 C         140.3633  144.3055  160.1944 C.ar    1  UNL1        0.2383
     18 N         139.6561  144.8142  158.9734 N.ar    1  UNL1       -0.1907
     19 C         141.6539  146.1056  153.0620 C.3     1  UNL1        0.0310
     20 C         140.8783  146.4991  154.2841 C.ar    1  UNL1       -0.0218
     21 C         139.8261  147.5643  154.1939 C.ar    1  UNL1       -0.0043
     22 C         139.0505  147.9578  155.4160 C.ar    1  UNL1       -0.0002
     23 C         139.3271  147.2862  156.7283 C.ar    1  UNL1        0.0031
     24 C         140.3794  146.2211  156.8186 C.ar    1  UNL1        0.0388
     25 C         141.1550  145.8275  155.5965 C.ar    1  UNL1       -0.0011
@<TRIPOS>BOND
     1    19    20    1
     2    20    21   ar
     3    21    22   ar
     4    22    23   ar
     5    23    24   ar
     6    24    14    1
     7    14    15   ar
     8    15    16   ar
     9    16    17   ar
    10    17     1    1
    11     1     2    1
    12     2     3    1
    13     3     4    2
    14     3     5   am
    15     5     7    1
    16     7     8   ar
    17     8     9   ar
    18     9    10   ar
    19    10    11    1
    20    10    12   ar
    21    12    13   ar
    22     5     6    1
    23    17    18   ar
    24    24    25   ar
    25    25    20   ar
    26    18    14   ar
    27     6     1    1
    28    13     7   ar
@<TRIPOS>MOLECULE
*****
 25 28 0 0 0
SMALL
GASTEIGER

@<TRIPOS>ATOM
      1 C         140.6312  143.8561  163.4550 C.3     1  UNL1        0.1084
      2 C         140.0587  144.1148  164.8171 C.3     1  UNL1        0.0966
      3 C         140.5471  143.0359  165.7377 C.2     1  UNL1        0.2299
      4 O         140.2188  142.9055  167.1955 O.2     1  UNL1       -0.2745
      5 N         141.4214  142.1104  164.9445 N.am    1  UNL1       -0.2581
      6 C         141.4733  142.6173  163.5338 C.3     1  UNL1        0.1079
      7 C         142.1209  140.8921  165.4700 C.ar    1  UNL1        0.0540
      8 C         142.7350  139.9101  164.5166 C.ar    1  UNL1        0.0172
      9 C         143.4345  138.6917  165.0421 C.ar    1  UNL1        0.0309
     10 C         143.5199  138.4552  166.5208 C.ar    1  UNL1        0.1402
     11 F         144.2194  137.2367  167.0464 F       1  UNL1       -0.2042
     12 C         142.9059  139.4371  167.4742 C.ar    1  UNL1        0.0309
     13 C         142.2063  140.6555  166.9488 C.ar    1  UNL1        0.0172
     14 C         140.4500  145.4861  159.9371 C.ar    1  UNL1        0.2033
     15 N         139.6473  146.4591  160.7491 N.ar    1  UNL1       -0.0560
     16 O         139.6175  145.9669  162.1657 O.2     1  UNL1       -0.3370
     17 C         140.4017  144.6897  162.2292 C.ar    1  UNL1        0.2383
     18 N         140.9162  144.3927  160.8519 N.ar    1  UNL1       -0.1907
     19 C         139.1946  147.2730  155.2221 C.3     1  UNL1        0.0310
     20 C         140.1084  146.4822  156.1107 C.ar    1  UNL1       -0.0218
     21 C         141.3083  145.7940  155.5305 C.ar    1  UNL1       -0.0043
     22 C         142.2221  145.0033  156.4191 C.ar    1  UNL1       -0.0002
     23 C         141.9360  144.9006  157.8879 C.ar    1  UNL1        0.0031
     24 C         140.7361  145.5888  158.4682 C.ar    1  UNL1        0.0388
     25 C         139.8223  146.3795  157.5795 C.ar    1  UNL1       -0.0011
@<TRIPOS>BOND
     1    19    20    1
     2    20    21   ar
     3    21    22   ar
     4    22    23   ar
     5    23    24   ar
     6    24    14    1
     7    14    15   ar
     8    15    16   ar
     9    16    17   ar
    10    17     1    1
    11     1     2    1
    12     2     3    1
    13     3     4    2
    14     3     5   am
    15     5     7    1
    16     7     8   ar
    17     8     9   ar
    18     9    10   ar
    19    10    11    1
    20    10    12   ar
    21    12    13   ar
    22     5     6    1
    23    17    18   ar
    24    24    25   ar
    25    25    20   ar
    26    18    14   ar
    27     6     1    1
    28    13     7   ar
@<TRIPOS>MOLECULE
*****
 25 28 0 0 0
SMALL
GASTEIGER

@<TRIPOS>ATOM
      1 C         138.9343  139.8395  160.2091 C.3     1  UNL1        0.1084
      2 C         138.1530  141.1039  160.4105 C.3     1  UNL1        0.0966
      3 C         138.0678  141.3662  161.8850 C.2     1  UNL1        0.2299
      4 O         137.3755  142.5270  162.5354 O.2     1  UNL1       -0.2745
      5 N         138.7965  140.2638  162.5947 N.am    1  UNL1       -0.2581
      6 C         139.3320  139.3203  161.5590 C.3     1  UNL1        0.1079
      7 C         138.9608  140.1288  164.0795 C.ar    1  UNL1        0.0540
      8 C         139.6495  141.2095  164.8592 C.ar    1  UNL1        0.0172
      9 C         139.8138  141.0745  166.3441 C.ar    1  UNL1        0.0309
     10 C         139.2894  139.8590  167.0492 C.ar    1  UNL1        0.1402
     11 F         139.4537  139.7240  168.5341 F       1  UNL1       -0.2042
     12 C         138.6006  138.7783  166.2696 C.ar    1  UNL1        0.0309
     13 C         138.4363  138.9133  164.7847 C.ar    1  UNL1        0.0172
     14 C         140.3507  137.8837  157.1702 C.ar    1  UNL1        0.2033
     15 N         139.1750  138.5761  156.5469 N.ar    1  UNL1       -0.0560
     16 O         138.5014  139.3930  157.6093 O.2     1  UNL1       -0.3370
     17 C         139.2607  139.2055  158.8894 C.ar    1  UNL1        0.2383
     18 N         140.4036  138.2727  158.6179 N.ar    1  UNL1       -0.1907
     19 C         141.2925  134.3029  153.5246 C.3     1  UNL1        0.0310
     20 C         141.7766  135.1734  154.6461 C.ar    1  UNL1       -0.0218
     21 C         143.2156  135.1241  155.0663 C.ar    1  UNL1       -0.0043
     22 C         143.6997  135.9946  156.1879 C.ar    1  UNL1       -0.0002
     23 C         142.7448  136.9145  156.8892 C.ar    1  UNL1        0.0031
     24 C         141.3057  136.9638  156.4689 C.ar    1  UNL1        0.0388
     25 C         140.8216  136.0933  155.3474 C.ar    1  UNL1       -0.0011
@<TRIPOS>BOND
     1    19    20    1
     2    20    21   ar
     3    21    22   ar
     4    22    23   ar
     5    23    24   ar
     6    24    14    1
     7    14    15   ar
     8    15    16   ar
     9    16    17   ar
    10    17     1    1
    11     1     2    1
    12     2     3    1
    13     3     4    2
    14     3     5   am
    15     5     7    1
    16     7     8   ar
    17     8     9   ar
    18     9    10   ar
    19    10    11    1
    20    10    12   ar
    21    12    13   ar
    22     5     6    1
    23    17    18   ar
    24    24    25   ar
    25    25    20   ar
    26    18    14   ar
    27     6     1    1
    28    13     7   ar
