@<TRIPOS>MOLECULE
*****
 37 40 0 0 0
SMALL
GASTEIGER

@<TRIPOS>ATOM
      1 O         138.8557  139.1001  158.3722 O.2     1  UNL1       -0.2733
      2 C         140.0950  138.4083  157.8871 C.2     1  UNL1        0.2426
      3 N         141.2355  138.1639  158.8302 N.am    1  UNL1       -0.3018
      4 H         142.0489  137.7098  158.5118 H       1  UNL1        0.1495
      5 C         141.1366  138.6114  160.2585 C.3     1  UNL1        0.1035
      6 C         140.2808  138.2344  161.4313 C.3     1  UNL1        0.0933
      7 N         140.9968  139.2442  162.2784 N.3     1  UNL1       -0.2711
      8 C         141.8527  139.6212  161.1057 C.3     1  UNL1        0.0933
      9 C         140.8979  139.6916  163.7067 C.3     1  UNL1        0.0576
     10 C         139.9199  140.7620  164.0914 C.3     1  UNL1        0.0163
     11 C         139.8211  141.2094  165.5197 C.3     1  UNL1        0.0073
     12 C         140.7002  140.5865  166.5633 C.3     1  UNL1        0.0404
     13 C         141.6781  139.5161  166.1787 C.3     1  UNL1        0.0073
     14 C         141.7770  139.0687  164.7504 C.3     1  UNL1        0.0163
     15 C         140.6013  141.0339  167.9916 C.ar    1  UNL1        0.0589
     16 C         140.6359  142.4963  168.3235 C.ar    1  UNL1        0.0178
     17 C         140.5370  142.9437  169.7519 C.ar    1  UNL1        0.0394
     18 C         140.4035  141.9288  170.8482 C.ar    1  UNL1        0.1527
     19 O         140.3046  142.3762  172.2765 O.3     1  UNL1       -0.5039
     20 C         140.3689  140.4663  170.5163 C.ar    1  UNL1        0.1349
     21 N         140.4678  140.0189  169.0880 N.ar    1  UNL1       -0.2450
     22 H         140.3262  143.2897  172.4839 H       1  UNL1        0.2923
     23 C         140.1939  137.9608  156.4588 C.3     1  UNL1        0.1759
     24 N         140.7033  136.5871  156.1368 N.am    1  UNL1       -0.2931
     25 C         142.1752  136.3025  156.1855 C.2     1  UNL1        0.2462
     26 O         143.1378  137.3915  156.5563 O.2     1  UNL1       -0.2701
     27 H         140.0715  135.8724  155.8934 H       1  UNL1        0.1502
     28 C         142.6846  134.9288  155.8635 C.ar    1  UNL1        0.0533
     29 C         142.2696  134.2546  154.5894 C.ar    1  UNL1        0.0045
     30 C         142.7790  132.8810  154.2674 C.ar    1  UNL1        0.0001
     31 C         143.7033  132.1816  155.2195 C.ar    1  UNL1        0.0039
     32 C         144.1183  132.8558  156.4936 C.ar    1  UNL1        0.0716
     33 C         143.6089  134.2294  156.8155 C.ar    1  UNL1        0.0084
     34 C         145.0426  132.1564  157.4456 C.3     1  UNL1        0.4186
     35 F         145.9669  131.4569  158.3977 F       1  UNL1       -0.1659
     36 F         144.7660  133.2035  158.4834 F       1  UNL1       -0.1659
     37 F         145.3191  131.1092  156.4078 F       1  UNL1       -0.1659
@<TRIPOS>BOND
     1     1     2    2
     2     2    23    1
     3    23    24    1
     4    24    25   am
     5    25    26    2
     6    25    28    1
     7    28    29   ar
     8    29    30   ar
     9    30    31   ar
    10    31    32   ar
    11    32    34    1
    12    34    35    1
    13    34    36    1
    14    34    37    1
    15    32    33   ar
    16     2     3   am
    17     3     5    1
    18     5     6    1
    19     6     7    1
    20     9     7    1
    21     9    10    1
    22    10    11    1
    23    11    12    1
    24    12    15    1
    25    15    16   ar
    26    16    17   ar
    27    17    18   ar
    28    18    19    1
    29    18    20   ar
    30    20    21   ar
    31    12    13    1
    32    13    14    1
    33     7     8    1
    34    33    28   ar
    35     8     5    1
    36    14     9    1
    37    21    15   ar
    38    24    27    1
    39     3     4    1
    40    19    22    1
@<TRIPOS>MOLECULE
*****
 37 40 0 0 0
SMALL
GASTEIGER

@<TRIPOS>ATOM
      1 O         143.0722  140.5318  158.0402 O.2     1  UNL1       -0.2733
      2 C         143.1818  139.0690  157.7270 C.2     1  UNL1        0.2426
      3 N         143.1780  138.0618  158.8385 N.am    1  UNL1       -0.3018
      4 H         143.2499  137.1016  158.6330 H       1  UNL1        0.1495
      5 C         143.0646  138.5173  160.2632 C.3     1  UNL1        0.1035
      6 C         144.0390  138.9416  161.3218 C.3     1  UNL1        0.0933
      7 N         142.9044  139.1616  162.2779 N.3     1  UNL1       -0.2711
      8 C         141.9300  138.7374  161.2194 C.3     1  UNL1        0.0933
      9 C         142.7911  139.6172  163.7026 C.3     1  UNL1        0.0576
     10 C         143.0015  138.6405  164.8213 C.3     1  UNL1        0.0163
     11 C         142.8882  139.0961  166.2460 C.3     1  UNL1        0.0073
     12 C         142.5644  140.5284  166.5518 C.3     1  UNL1        0.0404
     13 C         142.3540  141.5052  165.4331 C.3     1  UNL1        0.0073
     14 C         142.4673  141.0496  164.0085 C.3     1  UNL1        0.0163
     15 C         142.4511  140.9840  167.9765 C.ar    1  UNL1        0.0589
     16 C         141.9330  142.3573  168.2858 C.ar    1  UNL1        0.0178
     17 C         141.8197  142.8128  169.7105 C.ar    1  UNL1        0.0394
     18 C         142.2245  141.8951  170.8258 C.ar    1  UNL1        0.1527
     19 O         142.1112  142.3507  172.2505 O.3     1  UNL1       -0.5039
     20 C         142.7426  140.5219  170.5164 C.ar    1  UNL1        0.1349
     21 N         142.8559  140.0663  169.0918 N.ar    1  UNL1       -0.2450
     22 H         141.7876  143.2085  172.4437 H       1  UNL1        0.2923
     23 C         143.2951  138.6134  156.3024 C.3     1  UNL1        0.1759
     24 N         143.6794  137.1960  155.9966 N.am    1  UNL1       -0.2931
     25 C         142.6577  136.1028  156.1011 C.2     1  UNL1        0.2462
     26 O         141.2517  136.4268  156.5113 O.2     1  UNL1       -0.2701
     27 H         144.6021  136.9833  155.7273 H       1  UNL1        0.1502
     28 C         143.0419  134.6854  155.7952 C.ar    1  UNL1        0.0533
     29 C         142.6141  134.0544  154.5034 C.ar    1  UNL1        0.0045
     30 C         142.9984  132.6371  154.1976 C.ar    1  UNL1        0.0001
     31 C         143.8104  131.8507  155.1837 C.ar    1  UNL1        0.0039
     32 C         144.2381  132.4817  156.4755 C.ar    1  UNL1        0.0716
     33 C         143.8539  133.8990  156.7813 C.ar    1  UNL1        0.0084
     34 C         145.0501  131.6953  157.4616 C.3     1  UNL1        0.4186
     35 F         145.8621  130.9090  158.4476 F       1  UNL1       -0.1659
     36 F         144.8405  130.4548  156.6448 F       1  UNL1       -0.1659
     37 F         145.2598  132.9359  158.2783 F       1  UNL1       -0.1659
@<TRIPOS>BOND
     1     1     2    2
     2     2    23    1
     3    23    24    1
     4    24    25   am
     5    25    26    2
     6    25    28    1
     7    28    29   ar
     8    29    30   ar
     9    30    31   ar
    10    31    32   ar
    11    32    34    1
    12    34    35    1
    13    34    36    1
    14    34    37    1
    15    32    33   ar
    16     2     3   am
    17     3     5    1
    18     5     6    1
    19     6     7    1
    20     9     7    1
    21     9    10    1
    22    10    11    1
    23    11    12    1
    24    12    15    1
    25    15    16   ar
    26    16    17   ar
    27    17    18   ar
    28    18    19    1
    29    18    20   ar
    30    20    21   ar
    31    12    13    1
    32    13    14    1
    33     7     8    1
    34    33    28   ar
    35     8     5    1
    36    14     9    1
    37    21    15   ar
    38    24    27    1
    39     3     4    1
    40    19    22    1
@<TRIPOS>MOLECULE
*****
 37 40 0 0 0
SMALL
GASTEIGER

@<TRIPOS>ATOM
      1 O         141.8097  138.4226  158.4293 O.2     1  UNL1       -0.2733
      2 C         140.4599  138.0861  157.8680 C.2     1  UNL1        0.2426
      3 N         139.2416  138.1780  158.7382 N.am    1  UNL1       -0.3018
      4 H         138.3558  137.9571  158.3698 H       1  UNL1        0.1495
      5 C         139.3730  138.6063  160.1697 C.3     1  UNL1        0.1035
      6 C         140.0424  138.0431  161.3882 C.3     1  UNL1        0.0933
      7 N         139.5589  139.2121  162.1942 N.3     1  UNL1       -0.2711
      8 C         138.8895  139.7753  160.9758 C.3     1  UNL1        0.0933
      9 C         139.6903  139.6404  163.6257 C.3     1  UNL1        0.0576
     10 C         140.7882  140.5791  164.0300 C.3     1  UNL1        0.0163
     11 C         140.9196  141.0074  165.4616 C.3     1  UNL1        0.0073
     12 C         139.9530  140.4970  166.4888 C.3     1  UNL1        0.0404
     13 C         138.8551  139.5583  166.0846 C.3     1  UNL1        0.0073
     14 C         138.7237  139.1300  164.6531 C.3     1  UNL1        0.0163
     15 C         140.0844  140.9253  167.9203 C.ar    1  UNL1        0.0589
     16 C         140.4383  142.3455  168.2488 C.ar    1  UNL1        0.0178
     17 C         140.5697  142.7738  169.6804 C.ar    1  UNL1        0.0394
     18 C         140.3472  141.7819  170.7834 C.ar    1  UNL1        0.1527
     19 O         140.4786  142.2102  172.2150 O.3     1  UNL1       -0.5039
     20 C         139.9934  140.3617  170.4549 C.ar    1  UNL1        0.1349
     21 N         139.8620  139.9334  169.0234 N.ar    1  UNL1       -0.2450
     22 H         140.6997  143.0973  172.4202 H       1  UNL1        0.2923
     23 C         140.3285  137.6577  156.4365 C.3     1  UNL1        0.1759
     24 N         140.6967  136.2601  156.0350 N.am    1  UNL1       -0.2931
     25 C         142.1364  135.8940  155.8275 C.2     1  UNL1        0.2462
     26 O         143.2080  136.9255  156.0214 O.2     1  UNL1       -0.2701
     27 H         139.9933  135.5831  155.9077 H       1  UNL1        0.1502
     28 C         142.5045  134.4963  155.4260 C.ar    1  UNL1        0.0533
     29 C         142.1418  133.9876  154.0624 C.ar    1  UNL1        0.0045
     30 C         142.5100  132.5900  153.6610 C.ar    1  UNL1        0.0001
     31 C         143.2408  131.7012  154.6232 C.ar    1  UNL1        0.0039
     32 C         143.6036  132.2099  155.9868 C.ar    1  UNL1        0.0716
     33 C         143.2354  133.6075  156.3882 C.ar    1  UNL1        0.0084
     34 C         144.3345  131.3211  156.9490 C.3     1  UNL1        0.4186
     35 F         145.0653  130.4323  157.9112 F       1  UNL1       -0.1659
     36 F         143.0281  130.7461  157.4101 F       1  UNL1       -0.1659
     37 F         145.6408  131.8962  156.4879 F       1  UNL1       -0.1659
@<TRIPOS>BOND
     1     1     2    2
     2     2    23    1
     3    23    24    1
     4    24    25   am
     5    25    26    2
     6    25    28    1
     7    28    29   ar
     8    29    30   ar
     9    30    31   ar
    10    31    32   ar
    11    32    34    1
    12    34    35    1
    13    34    36    1
    14    34    37    1
    15    32    33   ar
    16     2     3   am
    17     3     5    1
    18     5     6    1
    19     6     7    1
    20     9     7    1
    21     9    10    1
    22    10    11    1
    23    11    12    1
    24    12    15    1
    25    15    16   ar
    26    16    17   ar
    27    17    18   ar
    28    18    19    1
    29    18    20   ar
    30    20    21   ar
    31    12    13    1
    32    13    14    1
    33     7     8    1
    34    33    28   ar
    35     8     5    1
    36    14     9    1
    37    21    15   ar
    38    24    27    1
    39     3     4    1
    40    19    22    1
@<TRIPOS>MOLECULE
*****
 37 40 0 0 0
SMALL
GASTEIGER

@<TRIPOS>ATOM
      1 O         139.1859  138.6621  158.4060 O.2     1  UNL1       -0.2733
      2 C         140.5091  138.1710  157.8981 C.2     1  UNL1        0.2426
      3 N         141.6940  138.1230  158.8166 N.am    1  UNL1       -0.3018
      4 H         142.5624  137.8007  158.4832 H       1  UNL1        0.1495
      5 C         141.5557  138.5662  160.2430 C.3     1  UNL1        0.1035
      6 C         141.2524  139.8674  160.9247 C.3     1  UNL1        0.0933
      7 N         141.3602  139.1930  162.2601 N.3     1  UNL1       -0.2711
      8 C         141.6636  137.8917  161.5784 C.3     1  UNL1        0.0933
      9 C         141.2219  139.6361  163.6864 C.3     1  UNL1        0.0576
     10 C         142.3922  140.2469  164.3989 C.3     1  UNL1        0.0163
     11 C         142.2539  140.6900  165.8253 C.3     1  UNL1        0.0073
     12 C         140.9454  140.5225  166.5392 C.3     1  UNL1        0.0404
     13 C         139.7751  139.9118  165.8267 C.3     1  UNL1        0.0073
     14 C         139.9134  139.4686  164.4004 C.3     1  UNL1        0.0163
     15 C         140.8071  140.9657  167.9655 C.ar    1  UNL1        0.0589
     16 C         140.7858  142.4283  168.2977 C.ar    1  UNL1        0.0178
     17 C         140.6475  142.8714  169.7241 C.ar    1  UNL1        0.0394
     18 C         140.5306  141.8520  170.8182 C.ar    1  UNL1        0.1527
     19 O         140.3924  142.2952  172.2446 O.3     1  UNL1       -0.5039
     20 C         140.5520  140.3894  170.4860 C.ar    1  UNL1        0.1349
     21 N         140.6902  139.9463  169.0597 N.ar    1  UNL1       -0.2450
     22 H         140.3790  143.2088  172.4522 H       1  UNL1        0.2923
     23 C         140.6474  137.7278  156.4718 C.3     1  UNL1        0.1759
     24 N         140.9179  136.2863  156.1571 N.am    1  UNL1       -0.2931
     25 C         142.3082  135.7385  156.2870 C.2     1  UNL1        0.2462
     26 O         143.4280  136.6320  156.7316 O.2     1  UNL1       -0.2701
     27 H         140.1830  135.6999  155.8653 H       1  UNL1        0.1502
     28 C         142.5787  134.2969  155.9723 C.ar    1  UNL1        0.0533
     29 C         143.9310  133.7098  156.2492 C.ar    1  UNL1        0.0045
     30 C         144.2014  132.2684  155.9346 C.ar    1  UNL1        0.0001
     31 C         143.1197  131.4141  155.3430 C.ar    1  UNL1        0.0039
     32 C         141.7674  132.0012  155.0661 C.ar    1  UNL1        0.0716
     33 C         141.4970  133.4426  155.3808 C.ar    1  UNL1        0.0084
     34 C         140.6857  131.1469  154.4746 C.3     1  UNL1        0.4186
     35 F         139.6039  130.2925  153.8831 F       1  UNL1       -0.1659
     36 F         140.3966  132.2144  153.4614 F       1  UNL1       -0.1659
     37 F         140.9747  130.0793  155.4879 F       1  UNL1       -0.1659
@<TRIPOS>BOND
     1     1     2    2
     2     2    23    1
     3    23    24    1
     4    24    25   am
     5    25    26    2
     6    25    28    1
     7    28    29   ar
     8    29    30   ar
     9    30    31   ar
    10    31    32   ar
    11    32    34    1
    12    34    35    1
    13    34    36    1
    14    34    37    1
    15    32    33   ar
    16     2     3   am
    17     3     5    1
    18     5     6    1
    19     6     7    1
    20     9     7    1
    21     9    10    1
    22    10    11    1
    23    11    12    1
    24    12    15    1
    25    15    16   ar
    26    16    17   ar
    27    17    18   ar
    28    18    19    1
    29    18    20   ar
    30    20    21   ar
    31    12    13    1
    32    13    14    1
    33     7     8    1
    34    33    28   ar
    35     8     5    1
    36    14     9    1
    37    21    15   ar
    38    24    27    1
    39     3     4    1
    40    19    22    1
@<TRIPOS>MOLECULE
*****
 37 40 0 0 0
SMALL
GASTEIGER

@<TRIPOS>ATOM
      1 O         142.1201  145.3589  158.1798 O.2     1  UNL1       -0.2733
      2 C         140.8960  144.7816  157.5330 C.2     1  UNL1        0.2426
      3 N         139.9162  143.9939  158.3510 N.am    1  UNL1       -0.3018
      4 H         139.1128  143.6149  157.9265 H       1  UNL1        0.1495
      5 C         140.1603  143.7834  159.8160 C.3     1  UNL1        0.1035
      6 C         140.6620  142.6456  160.6550 C.3     1  UNL1        0.0933
      7 N         140.5057  143.4857  161.8878 N.3     1  UNL1       -0.2711
      8 C         140.0040  144.6235  161.0489 C.3     1  UNL1        0.0933
      9 C         140.7498  143.2752  163.3527 C.3     1  UNL1        0.0576
     10 C         142.1153  142.8871  163.8373 C.3     1  UNL1        0.0163
     11 C         142.3594  142.6766  165.3023 C.3     1  UNL1        0.0073
     12 C         141.2381  142.8542  166.2826 C.3     1  UNL1        0.0404
     13 C         139.8726  143.2424  165.7980 C.3     1  UNL1        0.0073
     14 C         139.6285  143.4529  164.3331 C.3     1  UNL1        0.0163
     15 C         141.4823  142.6438  167.7475 C.ar    1  UNL1        0.0589
     16 C         142.8435  142.2388  168.2304 C.ar    1  UNL1        0.0178
     17 C         143.0876  142.0284  169.6955 C.ar    1  UNL1        0.0394
     18 C         141.9706  142.2228  170.6775 C.ar    1  UNL1        0.1527
     19 O         142.2147  142.0123  172.1425 O.3     1  UNL1       -0.5039
     20 C         140.6094  142.6277  170.1946 C.ar    1  UNL1        0.1349
     21 N         140.3652  142.8382  168.7297 N.ar    1  UNL1       -0.2450
     22 H         143.0650  141.7594  172.4442 H       1  UNL1        0.2923
     23 C         140.6518  144.9920  156.0680 C.3     1  UNL1        0.1759
     24 N         140.7428  146.3702  155.4829 N.am    1  UNL1       -0.2931
     25 C         139.5110  147.0431  154.9537 C.2     1  UNL1        0.2462
     26 O         138.1884  146.3379  155.0097 O.2     1  UNL1       -0.2701
     27 H         141.6109  146.8331  155.4461 H       1  UNL1        0.1502
     28 C         139.6020  148.4213  154.3685 C.ar    1  UNL1        0.0533
     29 C         140.1615  148.6156  152.9904 C.ar    1  UNL1        0.0045
     30 C         140.2524  149.9937  152.4053 C.ar    1  UNL1        0.0001
     31 C         139.7838  151.1776  153.1983 C.ar    1  UNL1        0.0039
     32 C         139.2243  150.9834  154.5764 C.ar    1  UNL1        0.0716
     33 C         139.1334  149.6052  155.1615 C.ar    1  UNL1        0.0084
     34 C         138.7558  152.1673  155.3694 C.3     1  UNL1        0.4186
     35 F         138.2872  153.3512  156.1624 F       1  UNL1       -0.1659
     36 F         138.2526  152.8108  154.1113 F       1  UNL1       -0.1659
     37 F         139.2589  151.5238  156.6275 F       1  UNL1       -0.1659
@<TRIPOS>BOND
     1     1     2    2
     2     2    23    1
     3    23    24    1
     4    24    25   am
     5    25    26    2
     6    25    28    1
     7    28    29   ar
     8    29    30   ar
     9    30    31   ar
    10    31    32   ar
    11    32    34    1
    12    34    35    1
    13    34    36    1
    14    34    37    1
    15    32    33   ar
    16     2     3   am
    17     3     5    1
    18     5     6    1
    19     6     7    1
    20     9     7    1
    21     9    10    1
    22    10    11    1
    23    11    12    1
    24    12    15    1
    25    15    16   ar
    26    16    17   ar
    27    17    18   ar
    28    18    19    1
    29    18    20   ar
    30    20    21   ar
    31    12    13    1
    32    13    14    1
    33     7     8    1
    34    33    28   ar
    35     8     5    1
    36    14     9    1
    37    21    15   ar
    38    24    27    1
    39     3     4    1
    40    19    22    1
@<TRIPOS>MOLECULE
*****
 37 40 0 0 0
SMALL
GASTEIGER

@<TRIPOS>ATOM
      1 O         142.1261  141.1511  157.8505 O.2     1  UNL1       -0.2733
      2 C         143.0340  139.9994  157.5353 C.2     1  UNL1        0.2426
      3 N         143.6149  139.1764  158.6466 N.am    1  UNL1       -0.3018
      4 H         144.2108  138.4205  158.4397 H       1  UNL1        0.1495
      5 C         143.2880  139.5050  160.0732 C.3     1  UNL1        0.1035
      6 C         143.8135  140.4806  161.0841 C.3     1  UNL1        0.0933
      7 N         142.8257  139.9698  162.0907 N.3     1  UNL1       -0.2711
      8 C         142.3002  138.9941  161.0798 C.3     1  UNL1        0.0933
      9 C         142.4988  140.2984  163.5173 C.3     1  UNL1        0.0576
     10 C         141.3630  141.2262  163.8319 C.3     1  UNL1        0.0163
     11 C         141.0361  141.5548  165.2585 C.3     1  UNL1        0.0073
     12 C         141.8450  140.9556  166.3705 C.3     1  UNL1        0.0404
     13 C         142.9809  140.0278  166.0559 C.3     1  UNL1        0.0073
     14 C         143.3078  139.6991  164.6293 C.3     1  UNL1        0.0163
     15 C         141.5181  141.2842  167.7970 C.ar    1  UNL1        0.0589
     16 C         140.7853  142.5511  168.1259 C.ar    1  UNL1        0.0178
     17 C         140.4585  142.8797  169.5525 C.ar    1  UNL1        0.0394
     18 C         140.8644  141.9415  170.6502 C.ar    1  UNL1        0.1527
     19 O         140.5375  142.2701  172.0769 O.3     1  UNL1       -0.5039
     20 C         141.5972  140.6746  170.3213 C.ar    1  UNL1        0.1349
     21 N         141.9241  140.3460  168.8948 N.ar    1  UNL1       -0.2450
     22 H         140.0797  143.0614  172.2823 H       1  UNL1        0.2923
     23 C         143.3609  139.6708  156.1087 C.3     1  UNL1        0.1759
     24 N         142.6822  138.5180  155.4301 N.am    1  UNL1       -0.2931
     25 C         143.4434  137.2547  155.1569 C.2     1  UNL1        0.2462
     26 O         144.8833  137.1441  155.5623 O.2     1  UNL1       -0.2701
     27 H         141.7371  138.5906  155.1640 H       1  UNL1        0.1502
     28 C         142.7646  136.1020  154.4783 C.ar    1  UNL1        0.0533
     29 C         142.0346  136.3168  153.1857 C.ar    1  UNL1        0.0045
     30 C         141.3559  135.1641  152.5071 C.ar    1  UNL1        0.0001
     31 C         141.4072  133.7965  153.1211 C.ar    1  UNL1        0.0039
     32 C         142.1373  133.5816  154.4137 C.ar    1  UNL1        0.0716
     33 C         142.8160  134.7344  155.0923 C.ar    1  UNL1        0.0084
     34 C         142.1887  132.2140  155.0277 C.3     1  UNL1        0.4186
     35 F         142.2400  130.8464  155.6417 F       1  UNL1       -0.1659
     36 F         140.7073  132.2619  155.2584 F       1  UNL1       -0.1659
     37 F         143.6700  132.1661  154.7970 F       1  UNL1       -0.1659
@<TRIPOS>BOND
     1     1     2    2
     2     2    23    1
     3    23    24    1
     4    24    25   am
     5    25    26    2
     6    25    28    1
     7    28    29   ar
     8    29    30   ar
     9    30    31   ar
    10    31    32   ar
    11    32    34    1
    12    34    35    1
    13    34    36    1
    14    34    37    1
    15    32    33   ar
    16     2     3   am
    17     3     5    1
    18     5     6    1
    19     6     7    1
    20     9     7    1
    21     9    10    1
    22    10    11    1
    23    11    12    1
    24    12    15    1
    25    15    16   ar
    26    16    17   ar
    27    17    18   ar
    28    18    19    1
    29    18    20   ar
    30    20    21   ar
    31    12    13    1
    32    13    14    1
    33     7     8    1
    34    33    28   ar
    35     8     5    1
    36    14     9    1
    37    21    15   ar
    38    24    27    1
    39     3     4    1
    40    19    22    1
@<TRIPOS>MOLECULE
*****
 37 40 0 0 0
SMALL
GASTEIGER

@<TRIPOS>ATOM
      1 O         137.8212  140.1510  158.0673 O.2     1  UNL1       -0.2733
      2 C         138.7967  141.2609  158.3250 C.2     1  UNL1        0.2426
      3 N         140.2619  141.0411  158.0911 N.am    1  UNL1       -0.3018
      4 H         140.9022  141.7696  158.2602 H       1  UNL1        0.1495
      5 C         140.7517  139.7112  157.5993 C.3     1  UNL1        0.1035
      6 C         140.9512  138.3595  158.2182 C.3     1  UNL1        0.0933
      7 N         141.4443  137.8306  156.9040 N.3     1  UNL1       -0.2711
      8 C         141.2448  139.1823  156.2851 C.3     1  UNL1        0.0933
      9 C         141.9341  136.5008  156.4124 C.3     1  UNL1        0.0576
     10 C         143.2621  135.9746  156.8702 C.3     1  UNL1        0.0163
     11 C         143.7518  134.6447  156.3785 C.3     1  UNL1        0.0073
     12 C         142.9135  133.8411  155.4290 C.3     1  UNL1        0.0404
     13 C         141.5855  134.3673  154.9713 C.3     1  UNL1        0.0073
     14 C         141.0958  135.6971  155.4629 C.3     1  UNL1        0.0163
     15 C         143.4033  132.5113  154.9374 C.ar    1  UNL1        0.0589
     16 C         144.3051  131.6787  155.7996 C.ar    1  UNL1        0.0178
     17 C         144.7948  130.3488  155.3079 C.ar    1  UNL1        0.0394
     18 C         144.3828  129.8517  153.9540 C.ar    1  UNL1        0.1527
     19 O         144.8725  128.5218  153.4623 O.3     1  UNL1       -0.5039
     20 C         143.4809  130.6843  153.0918 C.ar    1  UNL1        0.1349
     21 N         142.9912  132.0141  153.5834 N.ar    1  UNL1       -0.2450
     22 H         145.4358  128.0017  154.0009 H       1  UNL1        0.2923
     23 C         138.3070  142.5907  158.8167 C.3     1  UNL1        0.1759
     24 N         138.2334  142.8650  160.2896 N.am    1  UNL1       -0.2931
     25 C         139.4847  143.1660  161.0600 C.2     1  UNL1        0.2462
     26 O         140.8098  143.1929  160.3575 O.2     1  UNL1       -0.2701
     27 H         137.3637  142.8474  160.7507 H       1  UNL1        0.1502
     28 C         139.4110  143.4403  162.5329 C.ar    1  UNL1        0.0533
     29 C         138.2102  144.1311  163.1080 C.ar    1  UNL1        0.0045
     30 C         138.1366  144.4054  164.5809 C.ar    1  UNL1        0.0001
     31 C         139.2638  143.9888  165.4786 C.ar    1  UNL1        0.0039
     32 C         140.4646  143.2980  164.9035 C.ar    1  UNL1        0.0716
     33 C         140.5382  143.0237  163.4306 C.ar    1  UNL1        0.0084
     34 C         141.5918  142.8814  165.8012 C.3     1  UNL1        0.4186
     35 F         142.7190  142.4648  166.6989 F       1  UNL1       -0.1659
     36 F         140.6073  142.5479  166.8826 F       1  UNL1       -0.1659
     37 F         142.5763  143.2149  164.7198 F       1  UNL1       -0.1659
@<TRIPOS>BOND
     1     1     2    2
     2     2    23    1
     3    23    24    1
     4    24    25   am
     5    25    26    2
     6    25    28    1
     7    28    29   ar
     8    29    30   ar
     9    30    31   ar
    10    31    32   ar
    11    32    34    1
    12    34    35    1
    13    34    36    1
    14    34    37    1
    15    32    33   ar
    16     2     3   am
    17     3     5    1
    18     5     6    1
    19     6     7    1
    20     9     7    1
    21     9    10    1
    22    10    11    1
    23    11    12    1
    24    12    15    1
    25    15    16   ar
    26    16    17   ar
    27    17    18   ar
    28    18    19    1
    29    18    20   ar
    30    20    21   ar
    31    12    13    1
    32    13    14    1
    33     7     8    1
    34    33    28   ar
    35     8     5    1
    36    14     9    1
    37    21    15   ar
    38    24    27    1
    39     3     4    1
    40    19    22    1
@<TRIPOS>MOLECULE
*****
 37 40 0 0 0
SMALL
GASTEIGER

@<TRIPOS>ATOM
      1 O         145.1746  140.6165  157.2483 O.2     1  UNL1       -0.2733
      2 C         143.8994  141.3906  157.4050 C.2     1  UNL1        0.2426
      3 N         142.5788  140.6828  157.3346 N.am    1  UNL1       -0.3018
      4 H         141.7419  141.1909  157.4375 H       1  UNL1        0.1495
      5 C         142.5334  139.2007  157.1075 C.3     1  UNL1        0.1035
      6 C         143.0342  138.2758  156.0381 C.3     1  UNL1        0.0933
      7 N         142.4692  137.1048  156.7862 N.3     1  UNL1       -0.2711
      8 C         141.9684  138.0298  157.8556 C.3     1  UNL1        0.0933
      9 C         142.4239  135.6229  156.5591 C.3     1  UNL1        0.0576
     10 C         143.2895  134.7117  157.3779 C.3     1  UNL1        0.0163
     11 C         143.2441  133.2297  157.1507 C.3     1  UNL1        0.0073
     12 C         142.3331  132.6588  156.1047 C.3     1  UNL1        0.0404
     13 C         141.4675  133.5700  155.2859 C.3     1  UNL1        0.0073
     14 C         141.5128  135.0519  155.5130 C.3     1  UNL1        0.0163
     15 C         142.2877  131.1769  155.8776 C.ar    1  UNL1        0.0589
     16 C         143.4095  130.3087  156.3652 C.ar    1  UNL1        0.0178
     17 C         143.3641  128.8266  156.1380 C.ar    1  UNL1        0.0394
     18 C         142.1969  128.2128  155.4232 C.ar    1  UNL1        0.1527
     19 O         142.1515  126.7308  155.1961 O.3     1  UNL1       -0.5039
     20 C         141.0751  129.0810  154.9357 C.ar    1  UNL1        0.1349
     21 N         141.1205  130.5630  155.1628 N.ar    1  UNL1       -0.2450
     22 H         142.8522  126.1884  155.5006 H       1  UNL1        0.2923
     23 C         143.9447  142.8726  157.6321 C.3     1  UNL1        0.1759
     24 N         143.7263  143.4275  159.0085 N.am    1  UNL1       -0.2931
     25 C         142.3428  143.4791  159.5856 C.2     1  UNL1        0.2462
     26 O         141.1775  142.9758  158.7863 O.2     1  UNL1       -0.2701
     27 H         144.4911  143.7578  159.5332 H       1  UNL1        0.1502
     28 C         142.1244  144.0340  160.9620 C.ar    1  UNL1        0.0533
     29 C         140.9415  144.9144  161.2368 C.ar    1  UNL1        0.0045
     30 C         140.7232  145.4692  162.6131 C.ar    1  UNL1        0.0001
     31 C         141.6877  145.1436  163.7148 C.ar    1  UNL1        0.0039
     32 C         142.8706  144.2632  163.4400 C.ar    1  UNL1        0.0716
     33 C         143.0889  143.7083  162.0637 C.ar    1  UNL1        0.0084
     34 C         143.8352  143.9375  164.5417 C.3     1  UNL1        0.4186
     35 F         144.7997  143.6119  165.6433 F       1  UNL1       -0.1659
     36 F         144.1896  145.3902  164.6607 F       1  UNL1       -0.1659
     37 F         143.4807  142.4849  164.4227 F       1  UNL1       -0.1659
@<TRIPOS>BOND
     1     1     2    2
     2     2    23    1
     3    23    24    1
     4    24    25   am
     5    25    26    2
     6    25    28    1
     7    28    29   ar
     8    29    30   ar
     9    30    31   ar
    10    31    32   ar
    11    32    34    1
    12    34    35    1
    13    34    36    1
    14    34    37    1
    15    32    33   ar
    16     2     3   am
    17     3     5    1
    18     5     6    1
    19     6     7    1
    20     9     7    1
    21     9    10    1
    22    10    11    1
    23    11    12    1
    24    12    15    1
    25    15    16   ar
    26    16    17   ar
    27    17    18   ar
    28    18    19    1
    29    18    20   ar
    30    20    21   ar
    31    12    13    1
    32    13    14    1
    33     7     8    1
    34    33    28   ar
    35     8     5    1
    36    14     9    1
    37    21    15   ar
    38    24    27    1
    39     3     4    1
    40    19    22    1
@<TRIPOS>MOLECULE
*****
 37 40 0 0 0
SMALL
GASTEIGER

@<TRIPOS>ATOM
      1 O         141.4908  140.7200  162.9020 O.2     1  UNL1       -0.2733
      2 C         140.3225  139.7795  162.8822 C.2     1  UNL1        0.2426
      3 N         139.2583  139.9273  161.8355 N.am    1  UNL1       -0.3018
      4 H         138.4915  139.3099  161.8225 H       1  UNL1        0.1495
      5 C         139.3625  141.0157  160.8085 C.3     1  UNL1        0.1035
      6 C         140.2746  141.2988  159.6518 C.3     1  UNL1        0.0933
      7 N         139.5098  142.5548  159.3561 N.3     1  UNL1       -0.2711
      8 C         138.5977  142.2717  160.5128 C.3     1  UNL1        0.0933
      9 C         139.6140  143.6431  158.3292 C.3     1  UNL1        0.0576
     10 C         140.3458  144.9119  158.6526 C.3     1  UNL1        0.0163
     11 C         140.4500  146.0003  157.6255 C.3     1  UNL1        0.0073
     12 C         139.8223  145.8198  156.2752 C.3     1  UNL1        0.0404
     13 C         139.0905  144.5510  155.9518 C.3     1  UNL1        0.0073
     14 C         138.9863  143.4627  156.9788 C.3     1  UNL1        0.0163
     15 C         139.9265  146.9081  155.2483 C.ar    1  UNL1        0.0589
     16 C         140.7006  146.6754  153.9847 C.ar    1  UNL1        0.0178
     17 C         140.8047  147.7638  152.9577 C.ar    1  UNL1        0.0394
     18 C         140.1348  149.0849  153.1944 C.ar    1  UNL1        0.1527
     19 O         140.2390  150.1733  152.1674 O.3     1  UNL1       -0.5039
     20 C         139.3607  149.3176  154.4579 C.ar    1  UNL1        0.1349
     21 N         139.2566  148.2292  155.4849 N.ar    1  UNL1       -0.2450
     22 H         140.7225  150.0279  151.3781 H       1  UNL1        0.2923
     23 C         140.2183  138.6911  163.9091 C.3     1  UNL1        0.1759
     24 N         140.5805  138.9706  165.3377 N.am    1  UNL1       -0.2931
     25 C         139.8229  140.0061  166.1147 C.2     1  UNL1        0.2462
     26 O         138.7031  140.7621  165.4632 O.2     1  UNL1       -0.2701
     27 H         141.3155  138.4745  165.7653 H       1  UNL1        0.1502
     28 C         140.1851  140.2856  167.5433 C.ar    1  UNL1        0.0533
     29 C         139.1984  140.0012  168.6366 C.ar    1  UNL1        0.0045
     30 C         139.5607  140.2808  170.0651 C.ar    1  UNL1        0.0001
     31 C         140.9096  140.8447  170.4002 C.ar    1  UNL1        0.0039
     32 C         141.8963  141.1291  169.3068 C.ar    1  UNL1        0.0716
     33 C         141.5341  140.8496  167.8784 C.ar    1  UNL1        0.0084
     34 C         143.2453  141.6930  169.6420 C.3     1  UNL1        0.4186
     35 F         144.5942  142.2570  169.9771 F       1  UNL1       -0.1659
     36 F         143.5424  140.4846  170.4795 F       1  UNL1       -0.1659
     37 F         142.9481  142.9015  168.8045 F       1  UNL1       -0.1659
@<TRIPOS>BOND
     1     1     2    2
     2     2    23    1
     3    23    24    1
     4    24    25   am
     5    25    26    2
     6    25    28    1
     7    28    29   ar
     8    29    30   ar
     9    30    31   ar
    10    31    32   ar
    11    32    34    1
    12    34    35    1
    13    34    36    1
    14    34    37    1
    15    32    33   ar
    16     2     3   am
    17     3     5    1
    18     5     6    1
    19     6     7    1
    20     9     7    1
    21     9    10    1
    22    10    11    1
    23    11    12    1
    24    12    15    1
    25    15    16   ar
    26    16    17   ar
    27    17    18   ar
    28    18    19    1
    29    18    20   ar
    30    20    21   ar
    31    12    13    1
    32    13    14    1
    33     7     8    1
    34    33    28   ar
    35     8     5    1
    36    14     9    1
    37    21    15   ar
    38    24    27    1
    39     3     4    1
    40    19    22    1
