@<TRIPOS>MOLECULE
*****
 33 37 0 0 0
SMALL
GASTEIGER

@<TRIPOS>ATOM
      1 C         140.0915  138.4174  163.5060 C.2     1  UNL1        0.0866
      2 N         141.2248  137.4852  163.1955 N.2     1  UNL1       -0.1523
      3 N         141.3952  137.4426  161.7058 N.2     1  UNL1       -0.1523
      4 C         140.3671  138.3486  161.0956 C.2     1  UNL1        0.0858
      5 C         139.5614  138.9510  162.2082 C.3     1  UNL1        0.0883
      6 C         138.5333  139.8569  161.5980 C.3     1  UNL1        0.0384
      7 C         138.7037  139.8144  160.1083 C.ar    1  UNL1       -0.0205
      8 C         137.9732  140.5041  158.9944 C.ar    1  UNL1       -0.0071
      9 C         138.3761  140.2616  157.5701 C.ar    1  UNL1       -0.0065
     10 C         139.5095  139.3293  157.2596 C.ar    1  UNL1       -0.0029
     11 C         140.2399  138.6396  158.3734 C.ar    1  UNL1        0.0006
     12 C         139.8370  138.8822  159.7978 C.ar    1  UNL1        0.0117
     13 C         139.3530  139.7636  167.0708 C.ar    1  UNL1        0.0710
     14 C         140.1900  139.7410  165.8262 C.ar    1  UNL1        0.0165
     15 C         139.5783  138.7565  164.8741 C.ar    1  UNL1        0.0233
     16 C         138.3632  138.1707  165.5301 C.ar    1  UNL1        0.0373
     17 S         138.2240  138.7931  166.8878 S.2     1  UNL1       -0.0780
     18 C         139.8499  141.4530  169.4994 C.1     1  UNL1       -0.0534
     19 C         139.6014  140.6083  168.2851 C.1     1  UNL1       -0.0554
     20 C         140.0984  142.2977  170.7139 C.3     1  UNL1        0.2182
     21 O         141.5036  142.5907  171.1491 O.3     1  UNL1       -0.3374
     22 C         142.5732  142.8239  170.1236 C.3     1  UNL1        0.1755
     23 C         143.5970  141.7617  169.8528 C.3     1  UNL1        0.1743
     24 C         142.6772  139.3441  169.6097 C.3     1  UNL1        0.1742
     25 O         143.4103  140.3809  170.4081 O.3     1  UNL1       -0.3484
     26 C         137.6456  140.9513  156.4561 C.3     1  UNL1        0.0992
     27 N         137.9228  142.3950  156.1584 N.3     1  UNL1       -0.2665
     28 C         136.9462  143.1946  155.3478 C.3     1  UNL1        0.0899
     29 C         137.2234  144.6384  155.0500 C.3     1  UNL1        0.0897
     30 N         138.4772  145.2826  155.5628 N.3     1  UNL1       -0.2691
     31 C         138.7544  146.7264  155.2651 C.3     1  UNL1        0.0897
     32 C         139.4538  144.4831  156.3734 C.3     1  UNL1        0.0897
     33 C         139.1766  143.0393  156.6712 C.3     1  UNL1        0.0899
@<TRIPOS>BOND
     1    24    25    1
     2    25    23    1
     3    23    22    1
     4    22    21    1
     5    21    20    1
     6    20    18    1
     7    18    19    3
     8    19    13    1
     9    13    14   ar
    10    14    15   ar
    11    15     1    1
    12     1     2    2
    13     2     3    1
    14     3     4    2
    15     4     5    1
    16     5     6    1
    17     6     7    1
    18     7     8   ar
    19     8     9   ar
    20     9    26    1
    21    26    27    1
    22    27    28    1
    23    28    29    1
    24    29    30    1
    25    30    31    1
    26    30    32    1
    27    32    33    1
    28     9    10   ar
    29    10    11   ar
    30    11    12   ar
    31    15    16   ar
    32    16    17   ar
    33    17    13   ar
    34     5     1    1
    35    12     7   ar
    36    12     4    1
    37    33    27    1
@<TRIPOS>MOLECULE
*****
 33 37 0 0 0
SMALL
GASTEIGER

@<TRIPOS>ATOM
      1 C         142.9397  139.2577  158.5758 C.2     1  UNL1        0.0866
      2 N         143.5898  140.5696  158.2500 N.2     1  UNL1       -0.1523
      3 N         144.0508  141.1904  159.5354 N.2     1  UNL1       -0.1523
      4 C         143.6855  140.2620  160.6556 C.2     1  UNL1        0.0858
      5 C         142.9988  139.0676  160.0625 C.3     1  UNL1        0.0883
      6 C         142.6336  138.1393  161.1827 C.3     1  UNL1        0.0384
      7 C         143.0946  138.7600  162.4681 C.ar    1  UNL1       -0.0205
      8 C         143.0063  138.3000  163.8931 C.ar    1  UNL1       -0.0071
      9 C         143.5681  139.1520  164.9923 C.ar    1  UNL1       -0.0065
     10 C         144.2183  140.4640  164.6666 C.ar    1  UNL1       -0.0029
     11 C         144.3065  140.9239  163.2416 C.ar    1  UNL1        0.0006
     12 C         143.7447  140.0719  162.1424 C.ar    1  UNL1        0.0117
     13 C         141.8956  136.3064  156.2812 C.ar    1  UNL1        0.0710
     14 C         142.7709  136.8873  157.3519 C.ar    1  UNL1        0.0165
     15 C         142.3363  138.3034  157.5882 C.ar    1  UNL1        0.0233
     16 C         141.1924  138.5977  156.6637 C.ar    1  UNL1        0.0373
     17 S         140.9200  137.3634  155.8558 S.2     1  UNL1       -0.0780
     18 C         142.0662  133.5198  155.1834 C.1     1  UNL1       -0.0534
     19 C         141.9809  134.9130  155.7323 C.1     1  UNL1       -0.0554
     20 C         142.1515  132.1264  154.6346 C.3     1  UNL1        0.2182
     21 O         143.4018  131.6672  153.9445 O.3     1  UNL1       -0.3374
     22 C         144.1118  130.4347  154.4208 C.3     1  UNL1        0.1755
     23 C         144.8993  130.4688  155.6969 C.3     1  UNL1        0.1743
     24 C         145.2772  132.0526  157.7215 C.3     1  UNL1        0.1742
     25 O         145.3754  131.7793  156.2499 O.3     1  UNL1       -0.3484
     26 C         143.4799  138.6921  166.4174 C.3     1  UNL1        0.0992
     27 N         142.3854  139.2062  167.3050 N.3     1  UNL1       -0.2665
     28 C         142.6042  139.3039  168.7858 C.3     1  UNL1        0.0899
     29 C         141.5097  139.8180  169.6733 C.3     1  UNL1        0.0897
     30 N         140.1963  140.2343  169.0801 N.3     1  UNL1       -0.2691
     31 C         139.1018  140.7484  169.9676 C.3     1  UNL1        0.0897
     32 C         139.9775  140.1366  167.5994 C.3     1  UNL1        0.0897
     33 C         141.0721  139.6225  166.7118 C.3     1  UNL1        0.0899
@<TRIPOS>BOND
     1    24    25    1
     2    25    23    1
     3    23    22    1
     4    22    21    1
     5    21    20    1
     6    20    18    1
     7    18    19    3
     8    19    13    1
     9    13    14   ar
    10    14    15   ar
    11    15     1    1
    12     1     2    2
    13     2     3    1
    14     3     4    2
    15     4     5    1
    16     5     6    1
    17     6     7    1
    18     7     8   ar
    19     8     9   ar
    20     9    26    1
    21    26    27    1
    22    27    28    1
    23    28    29    1
    24    29    30    1
    25    30    31    1
    26    30    32    1
    27    32    33    1
    28     9    10   ar
    29    10    11   ar
    30    11    12   ar
    31    15    16   ar
    32    16    17   ar
    33    17    13   ar
    34     5     1    1
    35    12     7   ar
    36    12     4    1
    37    33    27    1
@<TRIPOS>MOLECULE
*****
 33 37 0 0 0
SMALL
GASTEIGER

@<TRIPOS>ATOM
      1 C         138.5454  140.1054  159.1930 C.2     1  UNL1        0.0866
      2 N         137.6090  140.5299  158.1008 N.2     1  UNL1       -0.1523
      3 N         138.0660  139.8896  156.8235 N.2     1  UNL1       -0.1523
      4 C         139.2849  139.0694  157.1265 C.2     1  UNL1        0.0858
      5 C         139.5812  139.2028  158.5909 C.3     1  UNL1        0.0883
      6 C         140.8000  138.3827  158.8938 C.3     1  UNL1        0.0384
      7 C         141.2571  137.7424  157.6166 C.ar    1  UNL1       -0.0205
      8 C         142.4049  136.8278  157.3072 C.ar    1  UNL1       -0.0071
      9 C         142.6164  136.3375  155.9054 C.ar    1  UNL1       -0.0065
     10 C         141.6800  136.7620  154.8132 C.ar    1  UNL1       -0.0029
     11 C         140.5322  137.6766  155.1226 C.ar    1  UNL1        0.0006
     12 C         140.3207  138.1668  156.5244 C.ar    1  UNL1        0.0117
     13 C         138.3117  140.4162  163.0549 C.ar    1  UNL1        0.0710
     14 C         138.3803  139.5832  161.8093 C.ar    1  UNL1        0.0165
     15 C         138.4609  140.5122  160.6344 C.ar    1  UNL1        0.0233
     16 C         138.4422  141.9193  161.1537 C.ar    1  UNL1        0.0373
     17 S         138.3499  141.8600  162.6497 S.2     1  UNL1       -0.0780
     18 C         138.1300  139.3772  165.8633 C.1     1  UNL1       -0.0534
     19 C         138.2208  139.8967  164.4591 C.1     1  UNL1       -0.0554
     20 C         138.0390  138.8577  167.2675 C.3     1  UNL1        0.2182
     21 O         138.7474  139.5732  168.3793 O.3     1  UNL1       -0.3374
     22 C         140.1605  140.0397  168.1906 C.3     1  UNL1        0.1755
     23 C         140.5047  141.4868  168.3843 C.3     1  UNL1        0.1743
     24 C         140.4377  143.6389  169.8382 C.3     1  UNL1        0.1742
     25 O         140.0357  142.2118  169.6107 O.3     1  UNL1       -0.3484
     26 C         143.7643  135.4228  155.5959 C.3     1  UNL1        0.0992
     27 N         143.6965  133.9760  155.9857 N.3     1  UNL1       -0.2665
     28 C         142.8985  133.0128  155.1578 C.3     1  UNL1        0.0899
     29 C         142.8307  131.5659  155.5476 C.3     1  UNL1        0.0897
     30 N         143.5610  131.0822  156.7653 N.3     1  UNL1       -0.2691
     31 C         143.4932  129.6353  157.1552 C.3     1  UNL1        0.0897
     32 C         144.3589  132.0454  157.5932 C.3     1  UNL1        0.0897
     33 C         144.4267  133.4923  157.2034 C.3     1  UNL1        0.0899
@<TRIPOS>BOND
     1    24    25    1
     2    25    23    1
     3    23    22    1
     4    22    21    1
     5    21    20    1
     6    20    18    1
     7    18    19    3
     8    19    13    1
     9    13    14   ar
    10    14    15   ar
    11    15     1    1
    12     1     2    2
    13     2     3    1
    14     3     4    2
    15     4     5    1
    16     5     6    1
    17     6     7    1
    18     7     8   ar
    19     8     9   ar
    20     9    26    1
    21    26    27    1
    22    27    28    1
    23    28    29    1
    24    29    30    1
    25    30    31    1
    26    30    32    1
    27    32    33    1
    28     9    10   ar
    29    10    11   ar
    30    11    12   ar
    31    15    16   ar
    32    16    17   ar
    33    17    13   ar
    34     5     1    1
    35    12     7   ar
    36    12     4    1
    37    33    27    1
@<TRIPOS>MOLECULE
*****
 33 37 0 0 0
SMALL
GASTEIGER

@<TRIPOS>ATOM
      1 C         142.6221  143.6350  160.8203 C.2     1  UNL1        0.0866
      2 N         143.8669  143.0700  160.2030 N.2     1  UNL1       -0.1523
      3 N         143.8715  143.4379  158.7488 N.2     1  UNL1       -0.1523
      4 C         142.6293  144.2304  158.4674 C.2     1  UNL1        0.0858
      5 C         141.8572  144.3521  159.7476 C.3     1  UNL1        0.0883
      6 C         140.6151  145.1446  159.4662 C.3     1  UNL1        0.0384
      7 C         140.6195  145.5125  158.0120 C.ar    1  UNL1       -0.0205
      8 C         139.6508  146.2890  157.1702 C.ar    1  UNL1       -0.0071
      9 C         139.9270  146.5006  155.7112 C.ar    1  UNL1       -0.0065
     10 C         141.1719  145.9355  155.0939 C.ar    1  UNL1       -0.0029
     11 C         142.1406  145.1590  155.9357 C.ar    1  UNL1        0.0006
     12 C         141.8644  144.9475  157.3947 C.ar    1  UNL1        0.0117
     13 C         142.0042  142.6876  164.5333 C.ar    1  UNL1        0.0710
     14 C         142.6514  142.4281  163.2052 C.ar    1  UNL1        0.0165
     15 C         142.2138  143.5056  162.2579 C.ar    1  UNL1        0.0233
     16 C         141.2962  144.4311  163.0005 C.ar    1  UNL1        0.0373
     17 S         141.1667  143.9255  164.4068 S.2     1  UNL1       -0.0780
     18 C         142.3282  141.0230  167.0079 C.1     1  UNL1       -0.0534
     19 C         142.1662  141.8553  165.7706 C.1     1  UNL1       -0.0554
     20 C         142.4903  140.1907  168.2452 C.3     1  UNL1        0.2182
     21 O         143.2544  140.7306  169.4177 O.3     1  UNL1       -0.3374
     22 C         143.5574  142.1972  169.5043 C.3     1  UNL1        0.1755
     23 C         142.8777  143.0436  170.5395 C.3     1  UNL1        0.1743
     24 C         140.3555  142.7470  169.9911 C.3     1  UNL1        0.1742
     25 O         141.4825  142.7133  170.9803 O.3     1  UNL1       -0.3484
     26 C         138.9583  147.2771  154.8693 C.3     1  UNL1        0.0992
     27 N         139.1115  148.7625  154.7269 N.3     1  UNL1       -0.2665
     28 C         139.7958  149.3336  153.5203 C.3     1  UNL1        0.0899
     29 C         139.9490  150.8189  153.3779 C.3     1  UNL1        0.0897
     30 N         139.4179  151.7332  154.4420 N.3     1  UNL1       -0.2691
     31 C         139.5710  153.2185  154.2996 C.3     1  UNL1        0.0897
     32 C         138.7336  151.1620  155.6484 C.3     1  UNL1        0.0897
     33 C         138.5804  149.6767  155.7909 C.3     1  UNL1        0.0899
@<TRIPOS>BOND
     1    24    25    1
     2    25    23    1
     3    23    22    1
     4    22    21    1
     5    21    20    1
     6    20    18    1
     7    18    19    3
     8    19    13    1
     9    13    14   ar
    10    14    15   ar
    11    15     1    1
    12     1     2    2
    13     2     3    1
    14     3     4    2
    15     4     5    1
    16     5     6    1
    17     6     7    1
    18     7     8   ar
    19     8     9   ar
    20     9    26    1
    21    26    27    1
    22    27    28    1
    23    28    29    1
    24    29    30    1
    25    30    31    1
    26    30    32    1
    27    32    33    1
    28     9    10   ar
    29    10    11   ar
    30    11    12   ar
    31    15    16   ar
    32    16    17   ar
    33    17    13   ar
    34     5     1    1
    35    12     7   ar
    36    12     4    1
    37    33    27    1
@<TRIPOS>MOLECULE
*****
 33 37 0 0 0
SMALL
GASTEIGER

@<TRIPOS>ATOM
      1 C         139.7494  139.1308  158.8094 C.2     1  UNL1        0.0866
      2 N         138.8074  140.1765  158.2905 N.2     1  UNL1       -0.1523
      3 N         138.1138  140.7998  159.4655 N.2     1  UNL1       -0.1523
      4 C         138.6271  140.1392  160.7106 C.2     1  UNL1        0.0858
      5 C         139.6379  139.1077  160.3051 C.3     1  UNL1        0.0883
      6 C         140.1512  138.4472  161.5502 C.3     1  UNL1        0.0384
      7 C         139.4576  139.0704  162.7252 C.ar    1  UNL1       -0.0205
      8 C         139.5621  138.8208  164.2005 C.ar    1  UNL1       -0.0071
      9 C         138.7246  139.6169  165.1570 C.ar    1  UNL1       -0.0065
     10 C         137.7827  140.6626  164.6381 C.ar    1  UNL1       -0.0029
     11 C         137.6782  140.9122  163.1627 C.ar    1  UNL1        0.0006
     12 C         138.5157  140.1161  162.2063 C.ar    1  UNL1        0.0117
     13 C         141.4249  136.6416  156.3473 C.ar    1  UNL1        0.0710
     14 C         140.2022  137.2955  156.9195 C.ar    1  UNL1        0.0165
     15 C         140.6454  138.2609  157.9785 C.ar    1  UNL1        0.0233
     16 C         142.1421  138.2037  158.0609 C.ar    1  UNL1        0.0373
     17 S         142.6238  137.2029  157.0527 S.2     1  UNL1       -0.0780
     18 C         141.4653  134.5743  154.1738 C.1     1  UNL1       -0.0534
     19 C         141.4451  135.6079  155.2605 C.1     1  UNL1       -0.0554
     20 C         141.4855  133.5406  153.0871 C.3     1  UNL1        0.2182
     21 O         142.1255  132.2064  153.3327 O.3     1  UNL1       -0.3374
     22 C         141.6792  131.3620  154.4894 C.3     1  UNL1        0.1755
     23 C         142.4888  131.3310  155.7517 C.3     1  UNL1        0.1743
     24 C         143.5531  133.1960  157.2142 C.3     1  UNL1        0.1742
     25 O         142.3452  132.4302  156.7622 O.3     1  UNL1       -0.3484
     26 C         138.8291  139.3673  166.6324 C.3     1  UNL1        0.0992
     27 N         139.6117  140.3090  167.4988 N.3     1  UNL1       -0.2665
     28 C         140.5595  141.2900  166.8748 C.3     1  UNL1        0.0899
     29 C         141.3421  142.2318  167.7412 C.3     1  UNL1        0.0897
     30 N         141.1769  142.1925  169.2316 N.3     1  UNL1       -0.2691
     31 C         141.9595  143.1342  170.0980 C.3     1  UNL1        0.0897
     32 C         140.2291  141.2115  169.8556 C.3     1  UNL1        0.0897
     33 C         139.4465  140.2698  168.9892 C.3     1  UNL1        0.0899
@<TRIPOS>BOND
     1    24    25    1
     2    25    23    1
     3    23    22    1
     4    22    21    1
     5    21    20    1
     6    20    18    1
     7    18    19    3
     8    19    13    1
     9    13    14   ar
    10    14    15   ar
    11    15     1    1
    12     1     2    2
    13     2     3    1
    14     3     4    2
    15     4     5    1
    16     5     6    1
    17     6     7    1
    18     7     8   ar
    19     8     9   ar
    20     9    26    1
    21    26    27    1
    22    27    28    1
    23    28    29    1
    24    29    30    1
    25    30    31    1
    26    30    32    1
    27    32    33    1
    28     9    10   ar
    29    10    11   ar
    30    11    12   ar
    31    15    16   ar
    32    16    17   ar
    33    17    13   ar
    34     5     1    1
    35    12     7   ar
    36    12     4    1
    37    33    27    1
@<TRIPOS>MOLECULE
*****
 33 37 0 0 0
SMALL
GASTEIGER

@<TRIPOS>ATOM
      1 C         139.4669  140.0997  161.8177 C.2     1  UNL1        0.0866
      2 N         138.0856  140.3376  161.2834 N.2     1  UNL1       -0.1523
      3 N         138.0262  139.7861  159.8897 N.2     1  UNL1       -0.1523
      4 C         139.3709  139.2073  159.5626 C.2     1  UNL1        0.0858
      5 C         140.2612  139.4011  160.7542 C.3     1  UNL1        0.0883
      6 C         141.6058  138.8223  160.4271 C.3     1  UNL1        0.0384
      7 C         141.5466  138.2708  159.0334 C.ar    1  UNL1       -0.0205
      8 C         142.5719  137.5826  158.1819 C.ar    1  UNL1       -0.0071
      9 C         142.2159  137.1325  156.7960 C.ar    1  UNL1       -0.0065
     10 C         140.8346  137.3704  156.2618 C.ar    1  UNL1       -0.0029
     11 C         139.8093  138.0585  157.1133 C.ar    1  UNL1        0.0006
     12 C         140.1653  138.5087  158.4991 C.ar    1  UNL1        0.0117
     13 C         140.1575  140.7342  165.5840 C.ar    1  UNL1        0.0710
     14 C         139.3260  140.1389  164.4867 C.ar    1  UNL1        0.0165
     15 C         139.9662  140.4915  163.1768 C.ar    1  UNL1        0.0233
     16 C         141.1933  141.3048  163.4645 C.ar    1  UNL1        0.0373
     17 S         141.3116  141.4548  164.9524 S.2     1  UNL1       -0.0780
     18 C         139.6088  140.5212  168.5256 C.1     1  UNL1       -0.0534
     19 C         139.8832  140.6277  167.0549 C.1     1  UNL1       -0.0554
     20 C         139.3344  140.4148  169.9965 C.3     1  UNL1        0.2182
     21 O         139.7738  141.5098  170.9227 O.3     1  UNL1       -0.3374
     22 C         140.6984  142.5832  170.4297 C.3     1  UNL1        0.1755
     23 C         142.1767  142.4598  170.6518 C.3     1  UNL1        0.1743
     24 C         143.1047  142.1899  168.2401 C.3     1  UNL1        0.1742
     25 O         143.0246  141.7179  169.6617 O.3     1  UNL1       -0.3484
     26 C         143.2412  136.4443  155.9444 C.3     1  UNL1        0.0992
     27 N         143.2805  134.9461  155.8813 N.3     1  UNL1       -0.2665
     28 C         143.7278  134.1566  157.0757 C.3     1  UNL1        0.0899
     29 C         143.7671  132.6585  157.0126 C.3     1  UNL1        0.0897
     30 N         143.3590  131.9498  155.7551 N.3     1  UNL1       -0.2691
     31 C         143.3983  130.4517  155.6920 C.3     1  UNL1        0.0897
     32 C         142.9117  132.7393  154.5607 C.3     1  UNL1        0.0897
     33 C         142.8724  134.2375  154.6238 C.3     1  UNL1        0.0899
@<TRIPOS>BOND
     1    24    25    1
     2    25    23    1
     3    23    22    1
     4    22    21    1
     5    21    20    1
     6    20    18    1
     7    18    19    3
     8    19    13    1
     9    13    14   ar
    10    14    15   ar
    11    15     1    1
    12     1     2    2
    13     2     3    1
    14     3     4    2
    15     4     5    1
    16     5     6    1
    17     6     7    1
    18     7     8   ar
    19     8     9   ar
    20     9    26    1
    21    26    27    1
    22    27    28    1
    23    28    29    1
    24    29    30    1
    25    30    31    1
    26    30    32    1
    27    32    33    1
    28     9    10   ar
    29    10    11   ar
    30    11    12   ar
    31    15    16   ar
    32    16    17   ar
    33    17    13   ar
    34     5     1    1
    35    12     7   ar
    36    12     4    1
    37    33    27    1
@<TRIPOS>MOLECULE
*****
 33 37 0 0 0
SMALL
GASTEIGER

@<TRIPOS>ATOM
      1 C         143.3216  140.0553  158.5544 C.2     1  UNL1        0.0866
      2 N         143.4219  141.5396  158.3625 N.2     1  UNL1       -0.1523
      3 N         143.4790  142.1795  159.7180 N.2     1  UNL1       -0.1523
      4 C         143.4138  141.0906  160.7477 C.2     1  UNL1        0.0858
      5 C         143.3166  139.7778  160.0285 C.3     1  UNL1        0.0883
      6 C         143.2514  138.6890  161.0582 C.3     1  UNL1        0.0384
      7 C         143.3085  139.3288  162.4137 C.ar    1  UNL1       -0.0205
      8 C         143.2820  138.7516  163.7979 C.ar    1  UNL1       -0.0071
      9 C         143.3558  139.6587  164.9902 C.ar    1  UNL1       -0.0065
     10 C         143.4562  141.1430  164.7983 C.ar    1  UNL1       -0.0029
     11 C         143.4827  141.7202  163.4141 C.ar    1  UNL1        0.0006
     12 C         143.4088  140.8131  162.2218 C.ar    1  UNL1        0.0117
     13 C         142.7695  136.9776  156.2548 C.ar    1  UNL1        0.0710
     14 C         142.6327  137.6625  157.5823 C.ar    1  UNL1        0.0165
     15 C         143.2404  139.0288  157.4637 C.ar    1  UNL1        0.0233
     16 C         143.7529  139.1883  156.0630 C.ar    1  UNL1        0.0373
     17 S         143.4618  137.9205  155.3158 S.2     1  UNL1       -0.0780
     18 C         141.8244  134.2083  155.5938 C.1     1  UNL1       -0.0534
     19 C         142.2969  135.5929  155.9243 C.1     1  UNL1       -0.0554
     20 C         141.3517  132.8235  155.2633 C.3     1  UNL1        0.2182
     21 O         142.0062  131.6350  155.9028 O.3     1  UNL1       -0.3374
     22 C         143.0981  131.8327  156.9121 C.3     1  UNL1        0.1755
     23 C         144.2078  130.8296  157.0228 C.3     1  UNL1        0.1743
     24 C         143.9796  129.0493  158.9012 C.3     1  UNL1        0.1742
     25 O         144.6101  130.3015  158.3678 O.3     1  UNL1       -0.3484
     26 C         143.3293  139.0815  166.3745 C.3     1  UNL1        0.0992
     27 N         142.1853  139.3906  167.2942 N.3     1  UNL1       -0.2665
     28 C         142.4132  139.4682  168.7748 C.3     1  UNL1        0.0899
     29 C         141.2692  139.7773  169.6945 C.3     1  UNL1        0.0897
     30 N         139.8974  140.0088  169.1335 N.3     1  UNL1       -0.2691
     31 C         138.7534  140.3179  170.0532 C.3     1  UNL1        0.0897
     32 C         139.6696  139.9313  167.6530 C.3     1  UNL1        0.0897
     33 C         140.8136  139.6222  166.7333 C.3     1  UNL1        0.0899
@<TRIPOS>BOND
     1    24    25    1
     2    25    23    1
     3    23    22    1
     4    22    21    1
     5    21    20    1
     6    20    18    1
     7    18    19    3
     8    19    13    1
     9    13    14   ar
    10    14    15   ar
    11    15     1    1
    12     1     2    2
    13     2     3    1
    14     3     4    2
    15     4     5    1
    16     5     6    1
    17     6     7    1
    18     7     8   ar
    19     8     9   ar
    20     9    26    1
    21    26    27    1
    22    27    28    1
    23    28    29    1
    24    29    30    1
    25    30    31    1
    26    30    32    1
    27    32    33    1
    28     9    10   ar
    29    10    11   ar
    30    11    12   ar
    31    15    16   ar
    32    16    17   ar
    33    17    13   ar
    34     5     1    1
    35    12     7   ar
    36    12     4    1
    37    33    27    1
@<TRIPOS>MOLECULE
*****
 33 37 0 0 0
SMALL
GASTEIGER

@<TRIPOS>ATOM
      1 C         138.6675  141.5911  163.0661 C.2     1  UNL1        0.0866
      2 N         137.8370  142.8194  162.8394 N.2     1  UNL1       -0.1523
      3 N         138.0733  143.2859  161.4335 N.2     1  UNL1       -0.1523
      4 C         139.0501  142.3457  160.7913 C.2     1  UNL1        0.0858
      5 C         139.4173  141.2984  161.8003 C.3     1  UNL1        0.0883
      6 C         140.3939  140.3583  161.1581 C.3     1  UNL1        0.0384
      7 C         140.6304  140.8248  159.7522 C.ar    1  UNL1       -0.0205
      8 C         141.4946  140.2897  158.6491 C.ar    1  UNL1       -0.0071
      9 C         141.5283  140.9829  157.3194 C.ar    1  UNL1       -0.0065
     10 C         140.6977  142.2112  157.0927 C.ar    1  UNL1       -0.0029
     11 C         139.8335  142.7463  158.1957 C.ar    1  UNL1        0.0006
     12 C         139.7998  142.0531  159.5255 C.ar    1  UNL1        0.0117
     13 C         139.1750  140.1478  166.6333 C.ar    1  UNL1        0.0710
     14 C         139.3153  141.2616  165.6384 C.ar    1  UNL1        0.0165
     15 C         138.7363  140.7952  164.3357 C.ar    1  UNL1        0.0233
     16 C         138.2382  139.3930  164.5253 C.ar    1  UNL1        0.0373
     17 S         138.5093  138.9929  165.9454 S.2     1  UNL1       -0.0780
     18 C         140.0689  140.2176  169.4961 C.1     1  UNL1       -0.0534
     19 C         139.6220  140.1827  168.0647 C.1     1  UNL1       -0.0554
     20 C         140.5160  140.2525  170.9275 C.3     1  UNL1        0.2182
     21 O         141.8828  140.7639  171.2742 O.3     1  UNL1       -0.3374
     22 C         142.9672  140.7680  170.2378 C.3     1  UNL1        0.1755
     23 C         143.3712  142.0541  169.5801 C.3     1  UNL1        0.1743
     24 C         142.8556  141.5649  167.0812 C.3     1  UNL1        0.1742
     25 O         142.7447  142.4605  168.2793 O.3     1  UNL1       -0.3484
     26 C         142.3926  140.4479  156.2163 C.3     1  UNL1        0.0992
     27 N         143.8311  140.8626  156.1223 N.3     1  UNL1       -0.2665
     28 C         144.6478  140.4714  154.9265 C.3     1  UNL1        0.0899
     29 C         146.0863  140.8861  154.8325 C.3     1  UNL1        0.0897
     30 N         146.7080  141.6921  155.9344 N.3     1  UNL1       -0.2691
     31 C         148.1464  142.1068  155.8404 C.3     1  UNL1        0.0897
     32 C         145.8912  142.0833  157.1301 C.3     1  UNL1        0.0897
     33 C         144.4527  141.6686  157.2241 C.3     1  UNL1        0.0899
@<TRIPOS>BOND
     1    24    25    1
     2    25    23    1
     3    23    22    1
     4    22    21    1
     5    21    20    1
     6    20    18    1
     7    18    19    3
     8    19    13    1
     9    13    14   ar
    10    14    15   ar
    11    15     1    1
    12     1     2    2
    13     2     3    1
    14     3     4    2
    15     4     5    1
    16     5     6    1
    17     6     7    1
    18     7     8   ar
    19     8     9   ar
    20     9    26    1
    21    26    27    1
    22    27    28    1
    23    28    29    1
    24    29    30    1
    25    30    31    1
    26    30    32    1
    27    32    33    1
    28     9    10   ar
    29    10    11   ar
    30    11    12   ar
    31    15    16   ar
    32    16    17   ar
    33    17    13   ar
    34     5     1    1
    35    12     7   ar
    36    12     4    1
    37    33    27    1
@<TRIPOS>MOLECULE
*****
 33 37 0 0 0
SMALL
GASTEIGER

@<TRIPOS>ATOM
      1 C         141.9865  139.8773  167.6598 C.2     1  UNL1        0.0866
      2 N         143.2586  139.0827  167.6794 N.2     1  UNL1       -0.1523
      3 N         143.3876  138.3815  166.3596 N.2     1  UNL1       -0.1523
      4 C         142.1951  138.7428  165.5244 C.2     1  UNL1        0.0858
      5 C         141.3293  139.6673  166.3279 C.3     1  UNL1        0.0883
      6 C         140.1369  140.0285  165.4927 C.3     1  UNL1        0.0384
      7 C         140.2658  139.3274  164.1729 C.ar    1  UNL1       -0.0205
      8 C         139.3892  139.3099  162.9559 C.ar    1  UNL1       -0.0071
      9 C         139.7847  138.4977  161.7584 C.ar    1  UNL1       -0.0065
     10 C         141.0567  137.7031  161.7780 C.ar    1  UNL1       -0.0029
     11 C         141.9333  137.7206  162.9950 C.ar    1  UNL1        0.0006
     12 C         141.5379  138.5328  164.1925 C.ar    1  UNL1        0.0117
     13 C         140.6045  142.6285  170.0233 C.ar    1  UNL1        0.0710
     14 C         141.0684  142.1751  168.6708 C.ar    1  UNL1        0.0165
     15 C         141.4636  140.7319  168.7761 C.ar    1  UNL1        0.0233
     16 C         141.2439  140.2933  170.1937 C.ar    1  UNL1        0.0373
     17 S         140.7130  141.4656  170.9645 S.2     1  UNL1       -0.0780
     18 C         139.6308  145.3784  170.7231 C.1     1  UNL1       -0.0534
     19 C         140.1176  144.0035  170.3732 C.1     1  UNL1       -0.0554
     20 C         139.1440  146.7534  171.0730 C.3     1  UNL1        0.2182
     21 O         137.6795  146.9994  171.2846 O.3     1  UNL1       -0.3374
     22 C         136.9425  146.2588  172.3609 C.3     1  UNL1        0.1755
     23 C         135.7859  146.9084  173.0611 C.3     1  UNL1        0.1743
     24 C         136.8843  149.1748  173.6989 C.3     1  UNL1        0.1742
     25 O         136.0313  147.9963  174.0641 O.3     1  UNL1       -0.3484
     26 C         138.9081  138.4802  160.5413 C.3     1  UNL1        0.0992
     27 N         138.9702  139.6094  159.5560 N.3     1  UNL1       -0.2665
     28 C         139.7036  139.4339  158.2593 C.3     1  UNL1        0.0899
     29 C         139.7657  140.5632  157.2739 C.3     1  UNL1        0.0897
     30 N         139.0944  141.8680  157.5853 N.3     1  UNL1       -0.2691
     31 C         139.1565  142.9973  156.5999 C.3     1  UNL1        0.0897
     32 C         138.3610  142.0435  158.8819 C.3     1  UNL1        0.0897
     33 C         138.2989  140.9142  159.8672 C.3     1  UNL1        0.0899
@<TRIPOS>BOND
     1    24    25    1
     2    25    23    1
     3    23    22    1
     4    22    21    1
     5    21    20    1
     6    20    18    1
     7    18    19    3
     8    19    13    1
     9    13    14   ar
    10    14    15   ar
    11    15     1    1
    12     1     2    2
    13     2     3    1
    14     3     4    2
    15     4     5    1
    16     5     6    1
    17     6     7    1
    18     7     8   ar
    19     8     9   ar
    20     9    26    1
    21    26    27    1
    22    27    28    1
    23    28    29    1
    24    29    30    1
    25    30    31    1
    26    30    32    1
    27    32    33    1
    28     9    10   ar
    29    10    11   ar
    30    11    12   ar
    31    15    16   ar
    32    16    17   ar
    33    17    13   ar
    34     5     1    1
    35    12     7   ar
    36    12     4    1
    37    33    27    1
