@<TRIPOS>MOLECULE
*****
 20 21 0 0 0
SMALL
GASTEIGER

@<TRIPOS>ATOM
      1 C         141.1236  142.3386  166.8578 C.ar    1  UNL1        0.0769
      2 C         142.5244  141.9312  167.2068 C.ar    1  UNL1        0.1171
      3 N         142.4652  141.0740  168.4363 N.ar    1  UNL1       -0.2283
      4 C         141.0278  140.9517  168.8473 C.ar    1  UNL1        0.1295
      5 N         140.1987  141.7332  167.8718 N.ar    1  UNL1       -0.3397
      6 H         139.2193  141.8316  167.8932 H       1  UNL1        0.1671
      7 C         139.9092  144.9232  163.3800 C.ar    1  UNL1        0.1387
      8 C         141.2396  144.2304  163.3711 C.ar    1  UNL1        0.0369
      9 C         141.6444  143.3689  164.5304 C.ar    1  UNL1        0.0046
     10 C         140.7188  143.2001  165.6986 C.ar    1  UNL1        0.0174
     11 C         139.3884  143.8928  165.7075 C.ar    1  UNL1        0.0046
     12 C         138.9836  144.7544  164.5482 C.ar    1  UNL1        0.0369
     13 C         140.1898  145.6294  160.8956 C.3     1  UNL1        0.2525
     14 O         139.5044  145.7847  162.2207 O.3     1  UNL1       -0.4714
     15 C         140.5104  140.1828  170.0268 C.3     1  UNL1        0.0901
     16 C         141.7878  139.3980  170.0755 C.3     1  UNL1        0.0232
     17 C         139.2331  140.9677  169.9780 C.3     1  UNL1        0.0232
     18 N         139.9930  139.4139  171.2062 N.3     1  UNL1       -0.3177
     19 H         140.6946  138.7365  171.5048 H       1  UNL1        0.1191
     20 H         139.1375  138.9243  170.9441 H       1  UNL1        0.1191
@<TRIPOS>BOND
     1    13    14    1
     2    14     7    1
     3     7     8   ar
     4     8     9   ar
     5     9    10   ar
     6    10     1    1
     7     1     2   ar
     8     2     3   ar
     9     3     4   ar
    10     4    15    1
    11    15    16    1
    12    15    17    1
    13    15    18    1
    14     4     5   ar
    15    10    11   ar
    16    11    12   ar
    17    12     7   ar
    18     5     1   ar
    19    18    19    1
    20    18    20    1
    21     5     6    1
@<TRIPOS>MOLECULE
*****
 20 21 0 0 0
SMALL
GASTEIGER

@<TRIPOS>ATOM
      1 C         140.0082  142.5820  166.4585 C.ar    1  UNL1        0.0769
      2 C         140.0087  141.0837  166.5317 C.ar    1  UNL1        0.1171
      3 N         140.1931  140.6898  167.9672 N.ar    1  UNL1       -0.2283
      4 C         140.3066  141.9446  168.7813 C.ar    1  UNL1        0.1295
      5 N         140.1923  143.1140  167.8488 N.ar    1  UNL1       -0.3397
      6 H         140.2313  144.0639  168.1045 H       1  UNL1        0.1671
      7 C         139.5371  145.0476  162.7237 C.ar    1  UNL1        0.1387
      8 C         138.3267  144.4883  163.4108 C.ar    1  UNL1        0.0369
      9 C         138.4838  143.6664  164.6557 C.ar    1  UNL1        0.0046
     10 C         139.8512  143.4038  165.2135 C.ar    1  UNL1        0.0174
     11 C         141.0615  143.9631  164.5264 C.ar    1  UNL1        0.0046
     12 C         140.9045  144.7850  163.2815 C.ar    1  UNL1        0.0369
     13 C         140.2630  145.6122  160.2938 C.3     1  UNL1        0.2525
     14 O         139.3801  145.8695  161.4787 O.3     1  UNL1       -0.4714
     15 C         140.5003  142.0172  170.2669 C.3     1  UNL1        0.0901
     16 C         140.6716  140.5279  170.3174 C.3     1  UNL1        0.0232
     17 C         140.3291  143.5065  170.2164 C.3     1  UNL1        0.0232
     18 N         140.6941  142.0899  171.7526 N.3     1  UNL1       -0.3177
     19 H         140.8478  141.1515  172.1217 H       1  UNL1        0.1191
     20 H         139.8628  142.4932  172.1846 H       1  UNL1        0.1191
@<TRIPOS>BOND
     1    13    14    1
     2    14     7    1
     3     7     8   ar
     4     8     9   ar
     5     9    10   ar
     6    10     1    1
     7     1     2   ar
     8     2     3   ar
     9     3     4   ar
    10     4    15    1
    11    15    16    1
    12    15    17    1
    13    15    18    1
    14     4     5   ar
    15    10    11   ar
    16    11    12   ar
    17    12     7   ar
    18     5     1   ar
    19    18    19    1
    20    18    20    1
    21     5     6    1
@<TRIPOS>MOLECULE
*****
 20 21 0 0 0
SMALL
GASTEIGER

@<TRIPOS>ATOM
      1 C         139.9912  142.5868  166.4435 C.ar    1  UNL1        0.0769
      2 C         139.9532  141.0890  166.5151 C.ar    1  UNL1        0.1171
      3 N         140.1372  140.6886  167.9489 N.ar    1  UNL1       -0.2283
      4 C         140.2889  141.9390  168.7635 C.ar    1  UNL1        0.1295
      5 N         140.1986  143.1121  167.8331 N.ar    1  UNL1       -0.3397
      6 H         140.2640  144.0604  168.0894 H       1  UNL1        0.1671
      7 C         139.5587  145.0684  162.7146 C.ar    1  UNL1        0.1387
      8 C         140.9185  144.8214  163.2976 C.ar    1  UNL1        0.0369
      9 C         141.0626  143.9942  164.5405 C.ar    1  UNL1        0.0046
     10 C         139.8470  143.4140  165.2005 C.ar    1  UNL1        0.0174
     11 C         138.4872  143.6610  164.6175 C.ar    1  UNL1        0.0046
     12 C         138.3431  144.4882  163.3746 C.ar    1  UNL1        0.0369
     13 C         140.2605  145.5969  160.2696 C.3     1  UNL1        0.2525
     14 O         139.4145  145.8956  161.4716 O.3     1  UNL1       -0.4714
     15 C         140.4946  142.0048  170.2479 C.3     1  UNL1        0.0901
     16 C         140.3352  143.4957  170.2039 C.3     1  UNL1        0.0232
     17 C         140.6541  140.5140  170.2918 C.3     1  UNL1        0.0232
     18 N         140.7004  142.0706  171.7322 N.3     1  UNL1       -0.3177
     19 H         140.6448  143.0413  172.0405 H       1  UNL1        0.1191
     20 H         141.6184  141.6919  171.9653 H       1  UNL1        0.1191
@<TRIPOS>BOND
     1    13    14    1
     2    14     7    1
     3     7     8   ar
     4     8     9   ar
     5     9    10   ar
     6    10     1    1
     7     1     2   ar
     8     2     3   ar
     9     3     4   ar
    10     4    15    1
    11    15    16    1
    12    15    17    1
    13    15    18    1
    14     4     5   ar
    15    10    11   ar
    16    11    12   ar
    17    12     7   ar
    18     5     1   ar
    19    18    19    1
    20    18    20    1
    21     5     6    1
@<TRIPOS>MOLECULE
*****
 20 21 0 0 0
SMALL
GASTEIGER

@<TRIPOS>ATOM
      1 C         140.4933  139.5513  166.5955 C.ar    1  UNL1        0.0769
      2 C         141.9821  139.4809  166.7647 C.ar    1  UNL1        0.1171
      3 N         142.2994  139.7686  168.2022 N.ar    1  UNL1       -0.2283
      4 C         141.0067  140.0169  168.9215 C.ar    1  UNL1        0.1295
      5 N         139.8905  139.8825  167.9285 N.ar    1  UNL1       -0.3397
      6 H         138.9308  139.9925  168.1183 H       1  UNL1        0.1671
      7 C         138.2325  138.8856  162.7620 C.ar    1  UNL1        0.1387
      8 C         138.1756  140.2202  163.4442 C.ar    1  UNL1        0.0369
      9 C         138.9292  140.4421  164.7220 C.ar    1  UNL1        0.0046
     10 C         139.7397  139.3294  165.3176 C.ar    1  UNL1        0.0174
     11 C         139.7966  137.9947  164.6355 C.ar    1  UNL1        0.0046
     12 C         139.0430  137.7728  163.3576 C.ar    1  UNL1        0.0369
     13 C         137.4195  139.7488  160.4504 C.3     1  UNL1        0.2525
     14 O         137.4789  138.6637  161.4842 O.3     1  UNL1       -0.4714
     15 C         140.8565  140.3423  170.3780 C.3     1  UNL1        0.0901
     16 C         142.3442  140.2580  170.5503 C.3     1  UNL1        0.0232
     17 C         139.3688  140.4267  170.2058 C.3     1  UNL1        0.0232
     18 N         140.7063  140.6678  171.8346 N.3     1  UNL1       -0.3177
     19 H         141.6261  140.6875  172.2751 H       1  UNL1        0.1191
     20 H         140.1292  139.9569  172.2840 H       1  UNL1        0.1191
@<TRIPOS>BOND
     1    13    14    1
     2    14     7    1
     3     7     8   ar
     4     8     9   ar
     5     9    10   ar
     6    10     1    1
     7     1     2   ar
     8     2     3   ar
     9     3     4   ar
    10     4    15    1
    11    15    16    1
    12    15    17    1
    13    15    18    1
    14     4     5   ar
    15    10    11   ar
    16    11    12   ar
    17    12     7   ar
    18     5     1   ar
    19    18    19    1
    20    18    20    1
    21     5     6    1
@<TRIPOS>MOLECULE
*****
 20 21 0 0 0
SMALL
GASTEIGER

@<TRIPOS>ATOM
      1 C         140.3506  141.7850  166.6818 C.ar    1  UNL1        0.0769
      2 C         139.6438  140.5416  167.1340 C.ar    1  UNL1        0.1171
      3 N         140.4115  139.9651  168.2865 N.ar    1  UNL1       -0.2283
      4 C         141.5927  140.8522  168.5467 C.ar    1  UNL1        0.1295
      5 N         141.5550  141.9769  167.5550 N.ar    1  UNL1       -0.3397
      6 H         142.2065  142.7121  167.4887 H       1  UNL1        0.1671
      7 C         139.0805  144.4681  163.2999 C.ar    1  UNL1        0.1387
      8 C         140.4566  144.5963  163.8828 C.ar    1  UNL1        0.0369
      9 C         140.8800  143.7020  165.0101 C.ar    1  UNL1        0.0046
     10 C         139.9272  142.6793  165.5545 C.ar    1  UNL1        0.0174
     11 C         138.5511  142.5511  164.9716 C.ar    1  UNL1        0.0046
     12 C         138.1277  143.4455  163.8443 C.ar    1  UNL1        0.0369
     13 C         139.6378  146.3235  161.5688 C.3     1  UNL1        0.2525
     14 O         138.6571  145.3625  162.1726 O.3     1  UNL1       -0.4714
     15 C         142.6295  140.6501  169.6117 C.3     1  UNL1        0.0901
     16 C         143.1911  142.0107  169.3231 C.3     1  UNL1        0.0232
     17 C         142.0679  139.2895  169.9002 C.3     1  UNL1        0.0232
     18 N         143.6664  140.4480  170.6766 N.3     1  UNL1       -0.3177
     19 H         144.2614  141.2745  170.7330 H       1  UNL1        0.1191
     20 H         144.2361  139.6339  170.4463 H       1  UNL1        0.1191
@<TRIPOS>BOND
     1    13    14    1
     2    14     7    1
     3     7     8   ar
     4     8     9   ar
     5     9    10   ar
     6    10     1    1
     7     1     2   ar
     8     2     3   ar
     9     3     4   ar
    10     4    15    1
    11    15    16    1
    12    15    17    1
    13    15    18    1
    14     4     5   ar
    15    10    11   ar
    16    11    12   ar
    17    12     7   ar
    18     5     1   ar
    19    18    19    1
    20    18    20    1
    21     5     6    1
@<TRIPOS>MOLECULE
*****
 20 21 0 0 0
SMALL
GASTEIGER

@<TRIPOS>ATOM
      1 C         141.5742  139.9904  167.4676 C.ar    1  UNL1        0.0769
      2 C         142.5988  139.2687  168.2916 C.ar    1  UNL1        0.1171
      3 N         143.1001  140.2156  169.3415 N.ar    1  UNL1       -0.2283
      4 C         142.3852  141.5225  169.1663 C.ar    1  UNL1        0.1295
      5 N         141.4421  141.3834  168.0081 N.ar    1  UNL1       -0.3397
      6 H         140.8419  142.0834  167.6633 H       1  UNL1        0.1671
      7 C         139.2963  138.2776  163.9851 C.ar    1  UNL1        0.1387
      8 C         138.6152  139.2128  164.9398 C.ar    1  UNL1        0.0369
      9 C         139.3745  139.7837  166.1006 C.ar    1  UNL1        0.0046
     10 C         140.8149  139.4195  166.3067 C.ar    1  UNL1        0.0174
     11 C         141.4960  138.4843  165.3521 C.ar    1  UNL1        0.0046
     12 C         140.7367  137.9133  164.1913 C.ar    1  UNL1        0.0369
     13 C         137.8330  138.6209  161.8659 C.3     1  UNL1        0.2525
     14 O         138.5370  137.7066  162.8243 O.3     1  UNL1       -0.4714
     15 C         142.5792  142.7527  170.0024 C.3     1  UNL1        0.0901
     16 C         141.0981  142.9897  169.9974 C.3     1  UNL1        0.0232
     17 C         144.0603  142.5156  170.0074 C.3     1  UNL1        0.0232
     18 N         142.7733  143.9828  170.8385 N.3     1  UNL1       -0.3177
     19 H         141.8677  144.4136  171.0248 H       1  UNL1        0.1191
     20 H         143.3677  144.6437  170.3382 H       1  UNL1        0.1191
@<TRIPOS>BOND
     1    13    14    1
     2    14     7    1
     3     7     8   ar
     4     8     9   ar
     5     9    10   ar
     6    10     1    1
     7     1     2   ar
     8     2     3   ar
     9     3     4   ar
    10     4    15    1
    11    15    16    1
    12    15    17    1
    13    15    18    1
    14     4     5   ar
    15    10    11   ar
    16    11    12   ar
    17    12     7   ar
    18     5     1   ar
    19    18    19    1
    20    18    20    1
    21     5     6    1
@<TRIPOS>MOLECULE
*****
 20 21 0 0 0
SMALL
GASTEIGER

@<TRIPOS>ATOM
      1 C         141.6069  139.5468  166.6411 C.ar    1  UNL1        0.0769
      2 C         140.1570  139.8125  166.9192 C.ar    1  UNL1        0.1171
      3 N         140.0230  140.1837  168.3664 N.ar    1  UNL1       -0.2283
      4 C         141.3900  140.1475  168.9827 C.ar    1  UNL1        0.1295
      5 N         142.3689  139.7539  167.9164 N.ar    1  UNL1       -0.3397
      6 H         143.3409  139.6497  168.0332 H       1  UNL1        0.1671
      7 C         143.3622  138.3406  162.6770 C.ar    1  UNL1        0.1387
      8 C         141.9923  137.8690  163.0653 C.ar    1  UNL1        0.0369
      9 C         141.4072  138.2711  164.3867 C.ar    1  UNL1        0.0046
     10 C         142.1920  139.1448  165.3198 C.ar    1  UNL1        0.0174
     11 C         143.5619  139.6164  164.9315 C.ar    1  UNL1        0.0046
     12 C         144.1470  139.2143  163.6101 C.ar    1  UNL1        0.0369
     13 C         143.0446  137.5430  160.2249 C.3     1  UNL1        0.2525
     14 O         143.9473  137.9386  161.3557 O.3     1  UNL1       -0.4714
     15 C         141.7203  140.4514  170.4140 C.3     1  UNL1        0.0901
     16 C         143.1167  140.8242  170.0126 C.3     1  UNL1        0.0232
     17 C         140.3238  140.0787  170.8153 C.3     1  UNL1        0.0232
     18 N         142.0505  140.7554  171.8452 N.3     1  UNL1       -0.3177
     19 H         143.0206  141.0633  171.9124 H       1  UNL1        0.1191
     20 H         141.9203  139.9160  172.4099 H       1  UNL1        0.1191
@<TRIPOS>BOND
     1    13    14    1
     2    14     7    1
     3     7     8   ar
     4     8     9   ar
     5     9    10   ar
     6    10     1    1
     7     1     2   ar
     8     2     3   ar
     9     3     4   ar
    10     4    15    1
    11    15    16    1
    12    15    17    1
    13    15    18    1
    14     4     5   ar
    15    10    11   ar
    16    11    12   ar
    17    12     7   ar
    18     5     1   ar
    19    18    19    1
    20    18    20    1
    21     5     6    1
@<TRIPOS>MOLECULE
*****
 20 21 0 0 0
SMALL
GASTEIGER

@<TRIPOS>ATOM
      1 C         139.7883  140.8294  166.7205 C.ar    1  UNL1        0.0769
      2 C         140.2177  142.2624  166.8300 C.ar    1  UNL1        0.1171
      3 N         140.5517  142.5379  168.2662 N.ar    1  UNL1       -0.2283
      4 C         140.3287  141.2750  169.0444 C.ar    1  UNL1        0.1295
      5 N         139.8569  140.2191  168.0891 N.ar    1  UNL1       -0.3397
      6 H         139.6318  139.2889  168.3198 H       1  UNL1        0.1671
      7 C         138.5176  138.7296  162.9488 C.ar    1  UNL1        0.1387
      8 C         139.3470  138.0053  163.9674 C.ar    1  UNL1        0.0369
      9 C         139.7706  138.7053  165.2246 C.ar    1  UNL1        0.0046
     10 C         139.3648  140.1294  165.4633 C.ar    1  UNL1        0.0174
     11 C         138.5354  140.8536  164.4447 C.ar    1  UNL1        0.0046
     12 C         138.1118  140.1537  163.1875 C.ar    1  UNL1        0.0369
     13 C         138.9191  138.1607  160.4458 C.3     1  UNL1        0.2525
     14 O         138.0940  138.0296  161.6915 O.3     1  UNL1       -0.4714
     15 C         140.5403  141.0990  170.5189 C.3     1  UNL1        0.0901
     16 C         140.0629  142.5013  170.7548 C.3     1  UNL1        0.0232
     17 C         141.0176  139.6967  170.2830 C.3     1  UNL1        0.0232
     18 N         140.7518  140.9230  171.9934 N.3     1  UNL1       -0.3177
     19 H         140.4938  141.7821  172.4789 H       1  UNL1        0.1191
     20 H         141.7336  140.7125  172.1733 H       1  UNL1        0.1191
@<TRIPOS>BOND
     1    13    14    1
     2    14     7    1
     3     7     8   ar
     4     8     9   ar
     5     9    10   ar
     6    10     1    1
     7     1     2   ar
     8     2     3   ar
     9     3     4   ar
    10     4    15    1
    11    15    16    1
    12    15    17    1
    13    15    18    1
    14     4     5   ar
    15    10    11   ar
    16    11    12   ar
    17    12     7   ar
    18     5     1   ar
    19    18    19    1
    20    18    20    1
    21     5     6    1
@<TRIPOS>MOLECULE
*****
 20 21 0 0 0
SMALL
GASTEIGER

@<TRIPOS>ATOM
      1 C         140.9441  142.7273  165.9135 C.ar    1  UNL1        0.0769
      2 C         140.2239  143.7765  165.1195 C.ar    1  UNL1        0.1171
      3 N         141.1371  144.2352  164.0215 N.ar    1  UNL1       -0.2283
      4 C         142.4217  143.4694  164.1368 C.ar    1  UNL1        0.1295
      5 N         142.3024  142.5375  165.3061 N.ar    1  UNL1       -0.3397
      6 H         142.9942  141.9112  165.6198 H       1  UNL1        0.1671
      7 C         139.3156  140.5341  169.4895 C.ar    1  UNL1        0.1387
      8 C         139.2014  139.9282  168.1221 C.ar    1  UNL1        0.0369
      9 C         139.7442  140.6593  166.9301 C.ar    1  UNL1        0.0046
     10 C         140.4013  141.9962  167.1055 C.ar    1  UNL1        0.0174
     11 C         140.5155  142.6021  168.4729 C.ar    1  UNL1        0.0046
     12 C         139.9727  141.8710  169.6649 C.ar    1  UNL1        0.0369
     13 C         137.3447  139.3443  170.6937 C.3     1  UNL1        0.2525
     14 O         138.7728  139.8030  170.6815 O.3     1  UNL1       -0.4714
     15 C         143.6160  143.6107  163.2402 C.3     1  UNL1        0.0901
     16 C         143.7077  145.0660  163.5918 C.3     1  UNL1        0.0232
     17 C         143.5242  142.1554  162.8887 C.3     1  UNL1        0.0232
     18 N         144.8102  143.7520  162.3437 N.3     1  UNL1       -0.3177
     19 H         145.1397  144.7170  162.3659 H       1  UNL1        0.1191
     20 H         144.5501  143.5033  161.3893 H       1  UNL1        0.1191
@<TRIPOS>BOND
     1    13    14    1
     2    14     7    1
     3     7     8   ar
     4     8     9   ar
     5     9    10   ar
     6    10     1    1
     7     1     2   ar
     8     2     3   ar
     9     3     4   ar
    10     4    15    1
    11    15    16    1
    12    15    17    1
    13    15    18    1
    14     4     5   ar
    15    10    11   ar
    16    11    12   ar
    17    12     7   ar
    18     5     1   ar
    19    18    19    1
    20    18    20    1
    21     5     6    1
