@<TRIPOS>MOLECULE
*****
 14 15 0 0 0
SMALL
GASTEIGER

@<TRIPOS>ATOM
      1 C         139.7679  140.0796  167.5361 C.ar    1  UNL1        0.0258
      2 C         138.9168  140.0263  168.7701 C.ar    1  UNL1        0.0077
      3 C         139.3330  140.7754  170.0012 C.ar    1  UNL1        0.0202
      4 C         140.6003  141.5778  169.9984 C.ar    1  UNL1        0.0893
      5 N         141.2617  142.4132  171.0541 N.ar    1  UNL1       -0.2245
      6 C         142.5216  142.9829  170.4727 C.ar    1  UNL1        0.1567
      7 N         143.4936  143.8786  171.1819 N.pl3   1  UNL1       -0.3375
      8 S         142.6389  142.4995  169.0575 S.2     1  UNL1       -0.0520
      9 C         141.4514  141.6311  168.7644 C.ar    1  UNL1        0.0502
     10 C         141.0352  140.8820  167.5333 C.ar    1  UNL1        0.0142
     11 H         143.3287  144.1423  172.1160 H       1  UNL1        0.1442
     12 H         144.2964  144.2029  170.7132 H       1  UNL1        0.1442
     13 C         138.0983  138.5067  166.3161 C.3     1  UNL1        0.0742
     14 S         139.3518  139.3305  166.3050 S.3     1  UNL1       -0.1127
@<TRIPOS>BOND
     1    13    14    1
     2    14     1    1
     3     1     2   ar
     4     2     3   ar
     5     3     4   ar
     6     4     5   ar
     7     5     6   ar
     8     6     7    1
     9     6     8   ar
    10     8     9   ar
    11     9    10   ar
    12    10     1   ar
    13     9     4   ar
    14     7    11    1
    15     7    12    1
@<TRIPOS>MOLECULE
*****
 14 15 0 0 0
SMALL
GASTEIGER

@<TRIPOS>ATOM
      1 C         140.1572  140.1379  167.1984 C.ar    1  UNL1        0.0258
      2 C         141.4649  140.1053  166.4643 C.ar    1  UNL1        0.0077
      3 C         142.6420  140.8688  166.9947 C.ar    1  UNL1        0.0202
      4 C         142.5115  141.6649  168.2593 C.ar    1  UNL1        0.0893
      5 N         143.4903  142.5112  169.0181 N.ar    1  UNL1       -0.2245
      6 C         142.7876  143.0668  170.2212 C.ar    1  UNL1        0.1567
      7 N         143.3919  143.9672  171.2576 N.pl3   1  UNL1       -0.3375
      8 S         141.3745  142.5639  170.2060 S.2     1  UNL1       -0.0520
      9 C         141.2039  141.6974  168.9934 C.ar    1  UNL1        0.0502
     10 C         140.0268  140.9339  168.4630 C.ar    1  UNL1        0.0142
     11 H         144.3335  144.2442  171.1804 H       1  UNL1        0.1442
     12 H         142.8470  144.2813  172.0150 H       1  UNL1        0.1442
     13 C         138.2789  139.8435  165.4277 C.3     1  UNL1        0.0742
     14 S         138.9801  139.3743  166.6680 S.3     1  UNL1       -0.1127
@<TRIPOS>BOND
     1    13    14    1
     2    14     1    1
     3     1     2   ar
     4     2     3   ar
     5     3     4   ar
     6     4     5   ar
     7     5     6   ar
     8     6     7    1
     9     6     8   ar
    10     8     9   ar
    11     9    10   ar
    12    10     1   ar
    13     9     4   ar
    14     7    11    1
    15     7    12    1
@<TRIPOS>MOLECULE
*****
 14 15 0 0 0
SMALL
GASTEIGER

@<TRIPOS>ATOM
      1 C         139.5689  139.5713  166.0881 C.ar    1  UNL1        0.0258
      2 C         140.9503  139.3282  165.5567 C.ar    1  UNL1        0.0077
      3 C         142.1319  139.4014  166.4780 C.ar    1  UNL1        0.0202
      4 C         141.9319  139.7175  167.9305 C.ar    1  UNL1        0.0893
      5 N         142.8978  139.8562  169.0698 N.ar    1  UNL1       -0.2245
      6 C         142.1132  140.1850  170.3053 C.ar    1  UNL1        0.1567
      7 N         142.6800  140.4097  171.6758 N.pl3   1  UNL1       -0.3375
      8 S         140.6625  140.2495  169.9296 S.2     1  UNL1       -0.0520
      9 C         140.5504  139.9606  168.4619 C.ar    1  UNL1        0.0502
     10 C         139.3689  139.8875  167.5407 C.ar    1  UNL1        0.0142
     11 H         143.6512  140.3453  171.8235 H       1  UNL1        0.1442
     12 H         142.0807  140.6217  172.4276 H       1  UNL1        0.1442
     13 C         138.1246  140.6096  164.1944 C.3     1  UNL1        0.0742
     14 S         138.3873  139.4982  165.1669 S.3     1  UNL1       -0.1127
@<TRIPOS>BOND
     1    13    14    1
     2    14     1    1
     3     1     2   ar
     4     2     3   ar
     5     3     4   ar
     6     4     5   ar
     7     5     6   ar
     8     6     7    1
     9     6     8   ar
    10     8     9   ar
    11     9    10   ar
    12    10     1   ar
    13     9     4   ar
    14     7    11    1
    15     7    12    1
@<TRIPOS>MOLECULE
*****
 14 15 0 0 0
SMALL
GASTEIGER

@<TRIPOS>ATOM
      1 C         139.9850  138.9902  164.9914 C.ar    1  UNL1        0.0258
      2 C         138.5775  138.6058  165.3391 C.ar    1  UNL1        0.0077
      3 C         138.0524  138.8529  166.7223 C.ar    1  UNL1        0.0202
      4 C         138.9349  139.4844  167.7578 C.ar    1  UNL1        0.0893
      5 N         138.6962  139.8480  169.1933 N.ar    1  UNL1       -0.2245
      6 C         139.9563  140.4572  169.7329 C.ar    1  UNL1        0.1567
      7 N         140.1626  140.9645  171.1294 N.pl3   1  UNL1       -0.3375
      8 S         140.9737  140.4701  168.6308 S.2     1  UNL1       -0.0520
      9 C         140.3424  139.8688  167.4101 C.ar    1  UNL1        0.0502
     10 C         140.8675  139.6217  166.0269 C.ar    1  UNL1        0.0142
     11 H         139.4302  140.9124  171.7853 H       1  UNL1        0.1442
     12 H         141.0304  141.3494  171.3901 H       1  UNL1        0.1442
     13 C         140.8488  137.3484  163.1726 C.3     1  UNL1        0.0742
     14 S         140.5101  138.7432  163.6082 S.3     1  UNL1       -0.1127
@<TRIPOS>BOND
     1    13    14    1
     2    14     1    1
     3     1     2   ar
     4     2     3   ar
     5     3     4   ar
     6     4     5   ar
     7     5     6   ar
     8     6     7    1
     9     6     8   ar
    10     8     9   ar
    11     9    10   ar
    12    10     1   ar
    13     9     4   ar
    14     7    11    1
    15     7    12    1
@<TRIPOS>MOLECULE
*****
 14 15 0 0 0
SMALL
GASTEIGER

@<TRIPOS>ATOM
      1 C         139.8634  140.4652  167.2628 C.ar    1  UNL1        0.0258
      2 C         138.9329  139.3956  166.7731 C.ar    1  UNL1        0.0077
      3 C         138.1245  139.6166  165.5290 C.ar    1  UNL1        0.0202
      4 C         138.2468  140.9073  164.7747 C.ar    1  UNL1        0.0893
      5 N         137.5825  141.4069  163.5260 N.ar    1  UNL1       -0.2245
      6 C         138.1025  142.7853  163.2440 C.ar    1  UNL1        0.1567
      7 N         137.7064  143.6582  162.0902 N.pl3   1  UNL1       -0.3375
      8 S         139.0882  143.1377  164.3184 S.2     1  UNL1       -0.0520
      9 C         139.1773  141.9769  165.2644 C.ar    1  UNL1        0.0502
     10 C         139.9857  141.7559  166.5085 C.ar    1  UNL1        0.0142
     11 H         137.0475  143.3366  161.4332 H       1  UNL1        0.1442
     12 H         138.1053  144.5526  161.9898 H       1  UNL1        0.1442
     13 C         140.0092  140.2990  169.8515 C.3     1  UNL1        0.0742
     14 S         140.6718  140.2441  168.5069 S.3     1  UNL1       -0.1127
@<TRIPOS>BOND
     1    13    14    1
     2    14     1    1
     3     1     2   ar
     4     2     3   ar
     5     3     4   ar
     6     4     5   ar
     7     5     6   ar
     8     6     7    1
     9     6     8   ar
    10     8     9   ar
    11     9    10   ar
    12    10     1   ar
    13     9     4   ar
    14     7    11    1
    15     7    12    1
@<TRIPOS>MOLECULE
*****
 14 15 0 0 0
SMALL
GASTEIGER

@<TRIPOS>ATOM
      1 C         138.8609  141.0152  165.2450 C.ar    1  UNL1        0.0258
      2 C         137.7448  140.8962  164.2499 C.ar    1  UNL1        0.0077
      3 C         137.5343  141.9728  163.2268 C.ar    1  UNL1        0.0202
      4 C         138.4399  143.1682  163.1988 C.ar    1  UNL1        0.0893
      5 N         138.4766  144.3790  162.3142 N.ar    1  UNL1       -0.2245
      6 C         139.6155  145.2463  162.7625 C.ar    1  UNL1        0.1567
      7 N         140.0167  146.5581  162.1555 N.pl3   1  UNL1       -0.3375
      8 S         140.2825  144.5715  163.9242 S.2     1  UNL1       -0.0520
      9 C         139.5559  143.2871  164.1938 C.ar    1  UNL1        0.0502
     10 C         139.7665  142.2106  165.2169 C.ar    1  UNL1        0.0142
     11 H         139.5140  146.9209  161.3908 H       1  UNL1        0.1442
     12 H         140.7828  147.0561  162.5220 H       1  UNL1        0.1442
     13 C         138.0475  138.8559  166.4391 C.3     1  UNL1        0.0742
     14 S         139.0714  139.9386  166.2681 S.3     1  UNL1       -0.1127
@<TRIPOS>BOND
     1    13    14    1
     2    14     1    1
     3     1     2   ar
     4     2     3   ar
     5     3     4   ar
     6     4     5   ar
     7     5     6   ar
     8     6     7    1
     9     6     8   ar
    10     8     9   ar
    11     9    10   ar
    12    10     1   ar
    13     9     4   ar
    14     7    11    1
    15     7    12    1
@<TRIPOS>MOLECULE
*****
 14 15 0 0 0
SMALL
GASTEIGER

@<TRIPOS>ATOM
      1 C         138.9138  140.6072  165.1011 C.ar    1  UNL1        0.0258
      2 C         138.1989  139.4200  165.6750 C.ar    1  UNL1        0.0077
      3 C         138.3723  139.0677  167.1227 C.ar    1  UNL1        0.0202
      4 C         139.2606  139.9026  167.9965 C.ar    1  UNL1        0.0893
      5 N         139.6227  139.8008  169.4486 N.ar    1  UNL1       -0.2245
      6 C         140.5614  140.9252  169.7722 C.ar    1  UNL1        0.1567
      7 N         141.1745  141.2039  171.1126 N.pl3   1  UNL1       -0.3375
      8 S         140.7795  141.7219  168.5201 S.2     1  UNL1       -0.0520
      9 C         139.9755  141.0899  167.4227 C.ar    1  UNL1        0.0502
     10 C         139.8021  141.4421  165.9750 C.ar    1  UNL1        0.0142
     11 H         140.9693  140.6205  171.8786 H       1  UNL1        0.1442
     12 H         141.7820  141.9702  171.2263 H       1  UNL1        0.1442
     13 C         137.3988  141.3948  163.1430 C.3     1  UNL1        0.0742
     14 S         138.7403  140.9595  163.6535 S.3     1  UNL1       -0.1127
@<TRIPOS>BOND
     1    13    14    1
     2    14     1    1
     3     1     2   ar
     4     2     3   ar
     5     3     4   ar
     6     4     5   ar
     7     5     6   ar
     8     6     7    1
     9     6     8   ar
    10     8     9   ar
    11     9    10   ar
    12    10     1   ar
    13     9     4   ar
    14     7    11    1
    15     7    12    1
@<TRIPOS>MOLECULE
*****
 14 15 0 0 0
SMALL
GASTEIGER

@<TRIPOS>ATOM
      1 C         143.8001  142.8714  162.7275 C.ar    1  UNL1        0.0258
      2 C         143.9458  144.2158  163.3765 C.ar    1  UNL1        0.0077
      3 C         142.7374  145.0764  163.5983 C.ar    1  UNL1        0.0202
      4 C         141.3834  144.5925  163.1712 C.ar    1  UNL1        0.0893
      5 N         140.0214  145.2148  163.2590 N.ar    1  UNL1       -0.2245
      6 C         139.0340  144.2549  162.6644 C.ar    1  UNL1        0.1567
      7 N         137.5545  144.4724  162.5459 N.pl3   1  UNL1       -0.3375
      8 S         139.7857  143.0394  162.2090 S.2     1  UNL1       -0.0520
      9 C         141.2377  143.2481  162.5223 C.ar    1  UNL1        0.0502
     10 C         142.4461  142.3875  162.3005 C.ar    1  UNL1        0.0142
     11 H         137.1518  145.3080  162.8758 H       1  UNL1        0.1442
     12 H         136.9862  143.7796  162.1381 H       1  UNL1        0.1442
     13 C         145.8403  141.5704  163.6737 C.3     1  UNL1        0.0742
     14 S         145.0085  142.0108  162.5057 S.3     1  UNL1       -0.1127
@<TRIPOS>BOND
     1    13    14    1
     2    14     1    1
     3     1     2   ar
     4     2     3   ar
     5     3     4   ar
     6     4     5   ar
     7     5     6   ar
     8     6     7    1
     9     6     8   ar
    10     8     9   ar
    11     9    10   ar
    12    10     1   ar
    13     9     4   ar
    14     7    11    1
    15     7    12    1
@<TRIPOS>MOLECULE
*****
 14 15 0 0 0
SMALL
GASTEIGER

@<TRIPOS>ATOM
      1 C         141.5986  139.0857  166.0892 C.ar    1  UNL1        0.0258
      2 C         140.1540  139.4636  166.2314 C.ar    1  UNL1        0.0077
      3 C         139.7081  140.2981  167.3953 C.ar    1  UNL1        0.0202
      4 C         140.7068  140.7547  168.4171 C.ar    1  UNL1        0.0893
      5 N         140.5639  141.5805  169.6611 N.ar    1  UNL1       -0.2245
      6 C         141.9202  141.7129  170.2879 C.ar    1  UNL1        0.1567
      7 N         142.2394  142.4584  171.5499 N.pl3   1  UNL1       -0.3375
      8 S         142.9014  140.9690  169.4312 S.2     1  UNL1       -0.0520
      9 C         142.1514  140.3768  168.2749 C.ar    1  UNL1        0.0502
     10 C         142.5973  139.5423  167.1110 C.ar    1  UNL1        0.0142
     11 H         141.5230  142.9178  172.0448 H       1  UNL1        0.1442
     12 H         143.1652  142.4882  171.8833 H       1  UNL1        0.1442
     13 C         141.1454  137.1806  164.3818 C.3     1  UNL1        0.0742
     14 S         142.0445  138.2511  164.9253 S.3     1  UNL1       -0.1127
@<TRIPOS>BOND
     1    13    14    1
     2    14     1    1
     3     1     2   ar
     4     2     3   ar
     5     3     4   ar
     6     4     5   ar
     7     5     6   ar
     8     6     7    1
     9     6     8   ar
    10     8     9   ar
    11     9    10   ar
    12    10     1   ar
    13     9     4   ar
    14     7    11    1
    15     7    12    1
