@<TRIPOS>MOLECULE
*****
 27 30 0 0 0
SMALL
GASTEIGER

@<TRIPOS>ATOM
      1 C         139.1147  139.6585  161.8315 C.3     1  UNL1        0.1123
      2 N         140.4536  140.7985  165.2916 N.am    1  UNL1       -0.2414
      3 C         141.7282  140.6941  164.5077 C.3     1  UNL1        0.1212
      4 C         141.3817  140.2543  163.1161 C.3     1  UNL1        0.1169
      5 N         139.8931  140.0870  163.0400 N.am    1  UNL1       -0.2606
      6 C         139.3194  140.4233  164.3845 C.2     1  UNL1        0.3111
      7 O         137.8667  140.3902  164.7566 O.2     1  UNL1       -0.2520
      8 C         139.9757  142.4306  171.0456 C.3     1  UNL1        0.0310
      9 C         140.0952  142.0225  169.6071 C.ar    1  UNL1       -0.0218
     10 C         140.6707  142.9761  168.6024 C.ar    1  UNL1       -0.0030
     11 C         140.7902  142.5681  167.1639 C.ar    1  UNL1        0.0146
     12 C         140.3341  141.2066  166.7302 C.ar    1  UNL1        0.0553
     13 C         139.7586  140.2530  167.7349 C.ar    1  UNL1        0.0146
     14 C         139.6391  140.6610  169.1734 C.ar    1  UNL1       -0.0030
     15 C         137.9435  140.4721  161.3663 C.3     1  UNL1        0.0939
     16 N         138.1220  141.9251  161.0394 N.3     1  UNL1       -0.2701
     17 C         138.4969  142.3400  159.6474 C.3     1  UNL1        0.0897
     18 C         137.9257  142.9631  162.1042 C.3     1  UNL1        0.0721
     19 C         139.1153  143.6148  162.7448 C.3     1  UNL1        0.0147
     20 C         140.4965  143.6926  162.1651 C.3     1  UNL1        0.0013
     21 C         141.3673  144.4289  163.1395 C.3     1  UNL1        0.0000
     22 C         140.5242  144.8063  164.3214 C.3     1  UNL1        0.0000
     23 C         139.1429  144.7285  164.9011 C.3     1  UNL1        0.0000
     24 C         138.2721  143.9921  163.9266 C.3     1  UNL1        0.0013
     25 C         139.1323  144.3031  164.0774 C.3     1  UNL1        0.0013
     26 C         138.5086  144.7878  165.3525 C.3     1  UNL1        0.0000
     27 C         137.6910  144.0964  164.4377 C.3     1  UNL1        0.0000
@<TRIPOS>BOND
     1     8     9    1
     2     9    10   ar
     3    10    11   ar
     4    11    12   ar
     5    12     2    1
     6     2     3    1
     7     3     4    1
     8     4     5    1
     9     5     1    1
    10     1    15    1
    11    15    16    1
    12    16    17    1
    13    16    18    1
    14    19    18    1
    15    19    20    1
    16    20    21    1
    17    22    21    1
    18    22    23    1
    19    23    24    1
    20    22    25    1
    21    25    26    1
    22    25    27    1
    23     5     6   am
    24     6     7    2
    25    12    13   ar
    26    13    14   ar
    27    14     9   ar
    28     6     2   am
    29    24    19    1
    30    25    19    1
@<TRIPOS>MOLECULE
*****
 27 30 0 0 0
SMALL
GASTEIGER

@<TRIPOS>ATOM
      1 C         142.5951  138.9355  161.9239 C.3     1  UNL1        0.1123
      2 N         141.8120  140.6676  165.3079 N.am    1  UNL1       -0.2414
      3 C         141.7263  141.8282  164.3615 C.3     1  UNL1        0.1212
      4 C         142.0092  141.3206  162.9787 C.3     1  UNL1        0.1169
      5 N         142.2698  139.8463  163.0704 N.am    1  UNL1       -0.2606
      6 C         142.1479  139.4427  164.5099 C.2     1  UNL1        0.3111
      7 O         142.3300  138.0575  165.0557 O.2     1  UNL1       -0.2520
      8 C         140.9608  140.8864  171.2432 C.3     1  UNL1        0.0310
      9 C         141.1736  140.8317  169.7594 C.ar    1  UNL1       -0.0218
     10 C         142.2303  139.9348  169.1858 C.ar    1  UNL1       -0.0030
     11 C         142.4431  139.8801  167.7020 C.ar    1  UNL1        0.0146
     12 C         141.5992  140.7223  166.7918 C.ar    1  UNL1        0.0553
     13 C         140.5425  141.6192  167.3653 C.ar    1  UNL1        0.0146
     14 C         140.3297  141.6739  168.8491 C.ar    1  UNL1       -0.0030
     15 C         141.7153  137.7568  161.6293 C.3     1  UNL1        0.0939
     16 N         140.2358  137.9462  161.4707 N.3     1  UNL1       -0.2701
     17 C         139.6661  138.3155  160.1330 C.3     1  UNL1        0.0897
     18 C         139.3260  137.7663  162.6496 C.3     1  UNL1        0.0721
     19 C         138.8156  138.9651  163.3929 C.3     1  UNL1        0.0147
     20 C         138.5106  140.3076  162.7974 C.3     1  UNL1        0.0013
     21 C         138.0271  141.2040  163.8987 C.3     1  UNL1        0.0000
     22 C         138.0333  140.4155  165.1747 C.3     1  UNL1        0.0000
     23 C         138.3383  139.0730  165.7701 C.3     1  UNL1        0.0000
     24 C         138.8218  138.1765  164.6689 C.3     1  UNL1        0.0013
     25 C         138.5206  139.0318  164.8621 C.3     1  UNL1        0.0013
     26 C         138.4381  138.4633  166.2478 C.3     1  UNL1        0.0000
     27 C         138.8921  137.6217  165.2138 C.3     1  UNL1        0.0000
@<TRIPOS>BOND
     1     8     9    1
     2     9    10   ar
     3    10    11   ar
     4    11    12   ar
     5    12     2    1
     6     2     3    1
     7     3     4    1
     8     4     5    1
     9     5     1    1
    10     1    15    1
    11    15    16    1
    12    16    17    1
    13    16    18    1
    14    19    18    1
    15    19    20    1
    16    20    21    1
    17    22    21    1
    18    22    23    1
    19    23    24    1
    20    22    25    1
    21    25    26    1
    22    25    27    1
    23     5     6   am
    24     6     7    2
    25    12    13   ar
    26    13    14   ar
    27    14     9   ar
    28     6     2   am
    29    24    19    1
    30    25    19    1
@<TRIPOS>MOLECULE
*****
 27 30 0 0 0
SMALL
GASTEIGER

@<TRIPOS>ATOM
      1 C         140.3826  140.8704  161.0506 C.3     1  UNL1        0.1123
      2 N         139.5300  140.7644  164.8357 N.am    1  UNL1       -0.2414
      3 C         138.3116  140.1182  164.2459 C.3     1  UNL1        0.1212
      4 C         138.4827  140.0792  162.7562 C.3     1  UNL1        0.1169
      5 N         139.8068  140.7014  162.4254 N.am    1  UNL1       -0.2606
      6 C         140.4541  141.1248  163.7105 C.2     1  UNL1        0.3111
      7 O         141.7908  141.7917  163.8466 O.2     1  UNL1       -0.2520
      8 C         140.5313  141.7367  170.6711 C.3     1  UNL1        0.0310
      9 C         140.2809  141.4937  169.2122 C.ar    1  UNL1       -0.0218
     10 C         139.7766  140.1588  168.7501 C.ar    1  UNL1       -0.0030
     11 C         139.5263  139.9156  167.2913 C.ar    1  UNL1        0.0146
     12 C         139.7803  141.0075  166.2946 C.ar    1  UNL1        0.0553
     13 C         140.2846  142.3424  166.7568 C.ar    1  UNL1        0.0146
     14 C         140.5350  142.5855  168.2156 C.ar    1  UNL1       -0.0030
     15 C         140.8776  139.6745  160.2924 C.3     1  UNL1        0.0939
     16 N         142.2496  139.1310  160.5613 N.3     1  UNL1       -0.2701
     17 C         143.4410  139.7281  159.8728 C.3     1  UNL1        0.0897
     18 C         142.4301  137.9905  161.5187 C.3     1  UNL1        0.0721
     19 C         142.6956  138.2640  162.9695 C.3     1  UNL1        0.0147
     20 C         143.8931  138.9738  163.5282 C.3     1  UNL1        0.0013
     21 C         143.7478  139.0241  165.0202 C.3     1  UNL1        0.0000
     22 C         142.4604  138.3454  165.3838 C.3     1  UNL1        0.0000
     23 C         141.2629  137.6356  164.8251 C.3     1  UNL1        0.0000
     24 C         141.4082  137.5852  163.3330 C.3     1  UNL1        0.0013
     25 C         141.8101  137.8756  164.1163 C.3     1  UNL1        0.0013
     26 C         140.5884  137.2547  164.7262 C.3     1  UNL1        0.0000
     27 C         140.7248  137.2074  163.3252 C.3     1  UNL1        0.0000
@<TRIPOS>BOND
     1     8     9    1
     2     9    10   ar
     3    10    11   ar
     4    11    12   ar
     5    12     2    1
     6     2     3    1
     7     3     4    1
     8     4     5    1
     9     5     1    1
    10     1    15    1
    11    15    16    1
    12    16    17    1
    13    16    18    1
    14    19    18    1
    15    19    20    1
    16    20    21    1
    17    22    21    1
    18    22    23    1
    19    23    24    1
    20    22    25    1
    21    25    26    1
    22    25    27    1
    23     5     6   am
    24     6     7    2
    25    12    13   ar
    26    13    14   ar
    27    14     9   ar
    28     6     2   am
    29    24    19    1
    30    25    19    1
@<TRIPOS>MOLECULE
*****
 27 30 0 0 0
SMALL
GASTEIGER

@<TRIPOS>ATOM
      1 C         142.1784  142.8404  161.2769 C.3     1  UNL1        0.1123
      2 N         141.1150  140.8697  164.4471 N.am    1  UNL1       -0.2414
      3 C         140.5330  140.0113  163.3634 C.3     1  UNL1        0.1212
      4 C         140.8605  140.6451  162.0439 C.3     1  UNL1        0.1169
      5 N         141.6449  141.8951  162.3121 N.am    1  UNL1       -0.2606
      6 C         141.8022  142.0340  163.7973 C.2     1  UNL1        0.3111
      7 O         142.5206  143.1425  164.5081 O.2     1  UNL1       -0.2520
      8 C         140.7570  139.8288  170.3452 C.3     1  UNL1        0.0310
      9 C         140.8465  140.0890  168.8707 C.ar    1  UNL1       -0.0218
     10 C         142.1870  140.2550  168.2184 C.ar    1  UNL1       -0.0030
     11 C         142.2766  140.5152  166.7439 C.ar    1  UNL1        0.0146
     12 C         141.0255  140.6095  165.9217 C.ar    1  UNL1        0.0553
     13 C         139.6850  140.4435  166.5740 C.ar    1  UNL1        0.0146
     14 C         139.5955  140.1833  168.0485 C.ar    1  UNL1       -0.0030
     15 C         141.9532  144.3164  161.4216 C.3     1  UNL1        0.0939
     16 N         140.6399  144.9180  161.0174 N.3     1  UNL1       -0.2701
     17 C         140.3662  145.2205  159.5739 C.3     1  UNL1        0.0897
     18 C         139.6004  145.2170  162.0567 C.3     1  UNL1        0.0721
     19 C         138.8307  144.0970  162.6916 C.3     1  UNL1        0.0147
     20 C         138.0725  143.0256  161.9654 C.3     1  UNL1        0.0013
     21 C         137.4573  142.1182  162.9892 C.3     1  UNL1        0.0000
     22 C         137.8352  142.6288  164.3481 C.3     1  UNL1        0.0000
     23 C         138.5934  143.7001  165.0742 C.3     1  UNL1        0.0000
     24 C         139.2087  144.6076  164.0504 C.3     1  UNL1        0.0013
     25 C         138.6841  143.8517  164.1641 C.3     1  UNL1        0.0013
     26 C         138.9226  144.1601  165.6126 C.3     1  UNL1        0.0000
     27 C         139.5003  145.0121  164.6514 C.3     1  UNL1        0.0000
@<TRIPOS>BOND
     1     8     9    1
     2     9    10   ar
     3    10    11   ar
     4    11    12   ar
     5    12     2    1
     6     2     3    1
     7     3     4    1
     8     4     5    1
     9     5     1    1
    10     1    15    1
    11    15    16    1
    12    16    17    1
    13    16    18    1
    14    19    18    1
    15    19    20    1
    16    20    21    1
    17    22    21    1
    18    22    23    1
    19    23    24    1
    20    22    25    1
    21    25    26    1
    22    25    27    1
    23     5     6   am
    24     6     7    2
    25    12    13   ar
    26    13    14   ar
    27    14     9   ar
    28     6     2   am
    29    24    19    1
    30    25    19    1
@<TRIPOS>MOLECULE
*****
 27 30 0 0 0
SMALL
GASTEIGER

@<TRIPOS>ATOM
      1 C         139.2585  141.4394  161.1752 C.3     1  UNL1        0.1123
      2 N         139.9023  141.2757  164.9992 N.am    1  UNL1       -0.2414
      3 C         138.4085  141.1483  164.9511 C.3     1  UNL1        0.1212
      4 C         137.9855  141.1942  163.5128 C.3     1  UNL1        0.1169
      5 N         139.2179  141.3499  162.6720 N.am    1  UNL1       -0.2606
      6 C         140.4025  141.4002  163.5906 C.2     1  UNL1        0.3111
      7 O         141.8357  141.5490  163.1739 O.2     1  UNL1       -0.2520
      8 C         143.2831  141.2852  169.9561 C.3     1  UNL1        0.0310
      9 C         142.4379  141.2828  168.7169 C.ar    1  UNL1       -0.0218
     10 C         142.5287  140.1403  167.7493 C.ar    1  UNL1       -0.0030
     11 C         141.6836  140.1378  166.5101 C.ar    1  UNL1        0.0146
     12 C         140.7475  141.2780  166.2385 C.ar    1  UNL1        0.0553
     13 C         140.6567  142.4206  167.2061 C.ar    1  UNL1        0.0146
     14 C         141.5018  142.4230  168.4453 C.ar    1  UNL1       -0.0030
     15 C         138.4600  140.4790  160.3443 C.3     1  UNL1        0.0939
     16 N         139.0340  139.1404  159.9859 N.3     1  UNL1       -0.2701
     17 C         139.5165  138.8807  158.5896 C.3     1  UNL1        0.0897
     18 C         139.1255  138.0614  161.0239 C.3     1  UNL1        0.0721
     19 C         140.3150  137.9964  161.9354 C.3     1  UNL1        0.0147
     20 C         141.7493  138.1554  161.5260 C.3     1  UNL1        0.0013
     21 C         142.5997  138.0183  162.7540 C.3     1  UNL1        0.0000
     22 C         141.6911  137.7747  163.9224 C.3     1  UNL1        0.0000
     23 C         140.2568  137.6158  164.3318 C.3     1  UNL1        0.0000
     24 C         139.4063  137.7528  163.1038 C.3     1  UNL1        0.0013
     25 C         140.2790  137.7612  163.4165 C.3     1  UNL1        0.0013
     26 C         139.5907  137.5100  164.7253 C.3     1  UNL1        0.0000
     27 C         138.7922  137.6387  163.5724 C.3     1  UNL1        0.0000
@<TRIPOS>BOND
     1     8     9    1
     2     9    10   ar
     3    10    11   ar
     4    11    12   ar
     5    12     2    1
     6     2     3    1
     7     3     4    1
     8     4     5    1
     9     5     1    1
    10     1    15    1
    11    15    16    1
    12    16    17    1
    13    16    18    1
    14    19    18    1
    15    19    20    1
    16    20    21    1
    17    22    21    1
    18    22    23    1
    19    23    24    1
    20    22    25    1
    21    25    26    1
    22    25    27    1
    23     5     6   am
    24     6     7    2
    25    12    13   ar
    26    13    14   ar
    27    14     9   ar
    28     6     2   am
    29    24    19    1
    30    25    19    1
@<TRIPOS>MOLECULE
*****
 27 30 0 0 0
SMALL
GASTEIGER

@<TRIPOS>ATOM
      1 C         138.6121  141.6093  161.1192 C.3     1  UNL1        0.1123
      2 N         140.1942  141.5455  164.6629 N.am    1  UNL1       -0.2414
      3 C         141.4196  141.5254  163.7980 C.3     1  UNL1        0.1212
      4 C         140.9760  141.5469  162.3653 C.3     1  UNL1        0.1169
      5 N         139.4766  141.5802  162.3447 N.am    1  UNL1       -0.2606
      6 C         138.9934  141.5794  163.7647 C.2     1  UNL1        0.3111
      7 O         137.5609  141.6075  164.2086 O.2     1  UNL1       -0.2520
      8 C         140.1109  141.4987  170.6621 C.3     1  UNL1        0.0310
      9 C         140.1317  141.5104  169.1624 C.ar    1  UNL1       -0.0218
     10 C         139.6697  140.3063  168.3964 C.ar    1  UNL1       -0.0030
     11 C         139.6905  140.3180  166.8967 C.ar    1  UNL1        0.0146
     12 C         140.1734  141.5338  166.1628 C.ar    1  UNL1        0.0553
     13 C         140.6354  142.7379  166.9287 C.ar    1  UNL1        0.0146
     14 C         140.6146  142.7263  168.4285 C.ar    1  UNL1       -0.0030
     15 C         137.9353  140.3560  160.6488 C.3     1  UNL1        0.0939
     16 N         138.7548  139.2031  160.1497 N.3     1  UNL1       -0.2701
     17 C         139.3162  139.2284  158.7589 C.3     1  UNL1        0.0897
     18 C         139.0129  138.0248  161.0414 C.3     1  UNL1        0.0721
     19 C         140.2487  137.9835  161.8906 C.3     1  UNL1        0.0147
     20 C         141.6612  138.0939  161.3980 C.3     1  UNL1        0.0013
     21 C         142.5743  138.0031  162.5845 C.3     1  UNL1        0.0000
     22 C         141.7262  137.8365  163.8105 C.3     1  UNL1        0.0000
     23 C         140.3137  137.7260  164.3032 C.3     1  UNL1        0.0000
     24 C         139.4005  137.8168  163.1166 C.3     1  UNL1        0.0013
     25 C         140.2889  137.8243  163.3816 C.3     1  UNL1        0.0013
     26 C         139.6682  137.6530  164.7364 C.3     1  UNL1        0.0000
     27 C         138.8108  137.7383  163.6224 C.3     1  UNL1        0.0000
@<TRIPOS>BOND
     1     8     9    1
     2     9    10   ar
     3    10    11   ar
     4    11    12   ar
     5    12     2    1
     6     2     3    1
     7     3     4    1
     8     4     5    1
     9     5     1    1
    10     1    15    1
    11    15    16    1
    12    16    17    1
    13    16    18    1
    14    19    18    1
    15    19    20    1
    16    20    21    1
    17    22    21    1
    18    22    23    1
    19    23    24    1
    20    22    25    1
    21    25    26    1
    22    25    27    1
    23     5     6   am
    24     6     7    2
    25    12    13   ar
    26    13    14   ar
    27    14     9   ar
    28     6     2   am
    29    24    19    1
    30    25    19    1
@<TRIPOS>MOLECULE
*****
 27 30 0 0 0
SMALL
GASTEIGER

@<TRIPOS>ATOM
      1 C         144.3984  140.7433  161.6831 C.3     1  UNL1        0.1123
      2 N         142.2098  139.2931  164.5417 N.am    1  UNL1       -0.2414
      3 C         143.5882  138.9900  165.0498 C.3     1  UNL1        0.1212
      4 C         144.5758  139.4964  164.0408 C.3     1  UNL1        0.1169
      5 N         143.8078  140.1124  162.9091 N.am    1  UNL1       -0.2606
      6 C         142.3456  139.9867  163.2187 C.2     1  UNL1        0.3111
      7 O         141.2171  140.4699  162.3566 O.2     1  UNL1       -0.2520
      8 C         137.0576  137.9638  167.3145 C.3     1  UNL1        0.0310
      9 C         138.3457  138.2961  166.6213 C.ar    1  UNL1       -0.0218
     10 C         138.7413  137.5553  165.3785 C.ar    1  UNL1       -0.0030
     11 C         140.0293  137.8875  164.6853 C.ar    1  UNL1        0.0146
     12 C         140.9217  138.9607  165.2349 C.ar    1  UNL1        0.0553
     13 C         140.5260  139.7016  166.4777 C.ar    1  UNL1        0.0146
     14 C         139.2380  139.3693  167.1710 C.ar    1  UNL1       -0.0030
     15 C         144.7940  142.1902  161.7005 C.3     1  UNL1        0.0939
     16 N         143.7415  143.2545  161.7970 N.3     1  UNL1       -0.2701
     17 C         142.8751  143.5620  160.6117 C.3     1  UNL1        0.0897
     18 C         143.5553  144.0112  163.0787 C.3     1  UNL1        0.0721
     19 C         142.4427  143.6401  164.0139 C.3     1  UNL1        0.0147
     20 C         140.9783  143.8573  163.7722 C.3     1  UNL1        0.0013
     21 C         140.2299  143.3381  164.9639 C.3     1  UNL1        0.0000
     22 C         141.2316  142.8000  165.9421 C.3     1  UNL1        0.0000
     23 C         142.6960  142.5827  166.1838 C.3     1  UNL1        0.0000
     24 C         143.4446  143.1019  164.9920 C.3     1  UNL1        0.0013
     25 C         142.5993  142.9866  165.3549 C.3     1  UNL1        0.0013
     26 C         143.3927  142.3922  166.4806 C.3     1  UNL1        0.0000
     27 C         144.0955  142.8797  165.3617 C.3     1  UNL1        0.0000
@<TRIPOS>BOND
     1     8     9    1
     2     9    10   ar
     3    10    11   ar
     4    11    12   ar
     5    12     2    1
     6     2     3    1
     7     3     4    1
     8     4     5    1
     9     5     1    1
    10     1    15    1
    11    15    16    1
    12    16    17    1
    13    16    18    1
    14    19    18    1
    15    19    20    1
    16    20    21    1
    17    22    21    1
    18    22    23    1
    19    23    24    1
    20    22    25    1
    21    25    26    1
    22    25    27    1
    23     5     6   am
    24     6     7    2
    25    12    13   ar
    26    13    14   ar
    27    14     9   ar
    28     6     2   am
    29    24    19    1
    30    25    19    1
@<TRIPOS>MOLECULE
*****
 27 30 0 0 0
SMALL
GASTEIGER

@<TRIPOS>ATOM
      1 C         142.6421  142.7419  161.3849 C.3     1  UNL1        0.1123
      2 N         140.8752  141.0241  164.3836 N.am    1  UNL1       -0.2414
      3 C         141.6424  142.1079  165.0813 C.3     1  UNL1        0.1212
      4 C         142.3976  142.8833  164.0429 C.3     1  UNL1        0.1169
      5 N         142.0972  142.2787  162.7034 N.am    1  UNL1       -0.2606
      6 C         141.1563  141.1297  162.9139 C.2     1  UNL1        0.3111
      7 O         140.5950  140.2421  161.8429 O.2     1  UNL1       -0.2520
      8 C         137.3081  136.9772  167.0101 C.3     1  UNL1        0.0310
      9 C         138.1999  137.9889  166.3535 C.ar    1  UNL1       -0.0218
     10 C         138.9497  137.6297  165.1050 C.ar    1  UNL1       -0.0030
     11 C         139.8415  138.6413  164.4484 C.ar    1  UNL1        0.0146
     12 C         139.9834  140.0123  165.0402 C.ar    1  UNL1        0.0553
     13 C         139.2335  140.3716  166.2887 C.ar    1  UNL1        0.0146
     14 C         138.3418  139.3599  166.9454 C.ar    1  UNL1       -0.0030
     15 C         141.7114  142.9958  160.2361 C.3     1  UNL1        0.0939
     16 N         140.6844  144.0850  160.3295 N.3     1  UNL1       -0.2701
     17 C         141.0277  145.4788  159.8943 C.3     1  UNL1        0.0897
     18 C         139.3140  143.7804  160.8581 C.3     1  UNL1        0.0721
     19 C         139.0202  143.9452  162.3198 C.3     1  UNL1        0.0147
     20 C         139.5547  145.0277  163.2099 C.3     1  UNL1        0.0013
     21 C         139.0051  144.8078  164.5882 C.3     1  UNL1        0.0000
     22 C         138.1311  143.5894  164.5499 C.3     1  UNL1        0.0000
     23 C         137.5967  142.5068  163.6597 C.3     1  UNL1        0.0000
     24 C         138.1462  142.7267  162.2813 C.3     1  UNL1        0.0013
     25 C         138.1404  143.0562  163.1478 C.3     1  UNL1        0.0013
     26 C         137.2287  141.8849  163.3638 C.3     1  UNL1        0.0000
     27 C         137.7446  142.0913  162.0697 C.3     1  UNL1        0.0000
@<TRIPOS>BOND
     1     8     9    1
     2     9    10   ar
     3    10    11   ar
     4    11    12   ar
     5    12     2    1
     6     2     3    1
     7     3     4    1
     8     4     5    1
     9     5     1    1
    10     1    15    1
    11    15    16    1
    12    16    17    1
    13    16    18    1
    14    19    18    1
    15    19    20    1
    16    20    21    1
    17    22    21    1
    18    22    23    1
    19    23    24    1
    20    22    25    1
    21    25    26    1
    22    25    27    1
    23     5     6   am
    24     6     7    2
    25    12    13   ar
    26    13    14   ar
    27    14     9   ar
    28     6     2   am
    29    24    19    1
    30    25    19    1
@<TRIPOS>MOLECULE
*****
 27 30 0 0 0
SMALL
GASTEIGER

@<TRIPOS>ATOM
      1 C         140.5651  140.6424  161.3211 C.3     1  UNL1        0.1123
      2 N         141.5715  142.3299  164.6683 N.am    1  UNL1       -0.2414
      3 C         141.9721  143.3848  163.6799 C.3     1  UNL1        0.1212
      4 C         141.6438  142.8810  162.3058 C.3     1  UNL1        0.1169
      5 N         141.0404  141.5148  162.4449 N.am    1  UNL1       -0.2606
      6 C         140.9957  141.1742  163.9049 C.2     1  UNL1        0.3111
      7 O         140.4679  139.9014  164.4976 O.2     1  UNL1       -0.2520
      8 C         142.1679  142.6732  170.6287 C.3     1  UNL1        0.0310
      9 C         142.0188  142.5874  169.1386 C.ar    1  UNL1       -0.0218
     10 C         143.2197  142.3266  168.2785 C.ar    1  UNL1       -0.0030
     11 C         143.0707  142.2408  166.7884 C.ar    1  UNL1        0.0146
     12 C         141.7206  142.4157  166.1585 C.ar    1  UNL1        0.0553
     13 C         140.5197  142.6765  167.0186 C.ar    1  UNL1        0.0146
     14 C         140.6687  142.7623  168.5087 C.ar    1  UNL1       -0.0030
     15 C         141.3988  140.4933  160.0829 C.3     1  UNL1        0.0939
     16 N         142.6304  139.6374  160.1065 N.3     1  UNL1       -0.2701
     17 C         142.6296  138.3031  159.4211 C.3     1  UNL1        0.0897
     18 C         143.8627  140.1159  160.8154 C.3     1  UNL1        0.0721
     19 C         144.0394  139.8426  162.2796 C.3     1  UNL1        0.0147
     20 C         143.4918  138.6642  163.0290 C.3     1  UNL1        0.0013
     21 C         143.9087  138.7931  164.4641 C.3     1  UNL1        0.0000
     22 C         144.7140  140.0511  164.6017 C.3     1  UNL1        0.0000
     23 C         145.2617  141.2295  163.8524 C.3     1  UNL1        0.0000
     24 C         144.8447  141.1006  162.4172 C.3     1  UNL1        0.0013
     25 C         144.7948  140.6997  163.2516 C.3     1  UNL1        0.0013
     26 C         145.6186  141.8912  163.6413 C.3     1  UNL1        0.0000
     27 C         145.2271  141.7702  162.2939 C.3     1  UNL1        0.0000
@<TRIPOS>BOND
     1     8     9    1
     2     9    10   ar
     3    10    11   ar
     4    11    12   ar
     5    12     2    1
     6     2     3    1
     7     3     4    1
     8     4     5    1
     9     5     1    1
    10     1    15    1
    11    15    16    1
    12    16    17    1
    13    16    18    1
    14    19    18    1
    15    19    20    1
    16    20    21    1
    17    22    21    1
    18    22    23    1
    19    23    24    1
    20    22    25    1
    21    25    26    1
    22    25    27    1
    23     5     6   am
    24     6     7    2
    25    12    13   ar
    26    13    14   ar
    27    14     9   ar
    28     6     2   am
    29    24    19    1
    30    25    19    1
