@<TRIPOS>MOLECULE
*****
 31 33 0 0 0
SMALL
GASTEIGER

@<TRIPOS>ATOM
      1 C         142.1702  144.7480  162.2916 C.3     1  UNL1        0.1056
      2 N         142.2989  144.0080  163.5900 N.3     1  UNL1       -0.2682
      3 C         141.0812  143.7380  164.4234 C.3     1  UNL1        0.0897
      4 C         141.2100  142.9980  165.7217 C.3     1  UNL1        0.0899
      5 N         142.5564  142.5279  166.1868 N.3     1  UNL1       -0.2664
      6 C         143.7740  142.7978  165.3534 C.3     1  UNL1        0.0899
      7 C         143.6453  143.5379  164.0550 C.3     1  UNL1        0.0897
      8 C         142.6851  141.7880  167.4851 C.3     1  UNL1        0.1023
      9 C         141.4563  141.4077  168.2568 C.ar    1  UNL1        0.0319
     10 C         140.6278  140.2366  167.8183 C.ar    1  UNL1        0.1383
     11 F         141.0283  139.4457  166.6082 F       1  UNL1       -0.2044
     12 C         139.3990  139.8563  168.5899 C.ar    1  UNL1        0.0294
     13 C         138.9986  140.6472  169.8000 C.ar    1  UNL1        0.0032
     14 C         139.8270  141.8183  170.2384 C.ar    1  UNL1        0.0113
     15 C         141.0559  142.1986  169.4668 C.ar    1  UNL1        0.0572
     16 CL        141.8843  143.3697  169.9052 Cl      1  UNL1       -0.0825
     17 O         140.3575  146.6079  162.3623 O.3     1  UNL1       -0.3793
     18 C         140.8350  145.2777  161.8595 C.3     1  UNL1        0.1700
     19 H         139.4827  146.7993  161.9895 H       1  UNL1        0.2106
     20 C         139.9773  144.4774  160.9247 C.3     1  UNL1        0.2358
     21 O         138.6583  143.9382  161.3931 O.3     1  UNL1       -0.4728
     22 C         138.6108  142.6912  162.2256 C.ar    1  UNL1        0.1387
     23 C         137.6161  142.5724  163.3420 C.ar    1  UNL1        0.0368
     24 C         137.5686  141.3255  164.1745 C.ar    1  UNL1        0.0070
     25 C         138.5157  140.1975  163.8905 C.ar    1  UNL1        0.0716
     26 C         139.5103  140.3164  162.7740 C.ar    1  UNL1        0.0070
     27 C         139.5579  141.5633  161.9416 C.ar    1  UNL1        0.0368
     28 C         138.4681  138.9506  164.7230 C.3     1  UNL1        0.4186
     29 F         138.4206  137.7037  165.5555 F       1  UNL1       -0.1659
     30 F         137.7561  139.7023  165.8083 F       1  UNL1       -0.1659
     31 F         139.1801  138.1989  163.6377 F       1  UNL1       -0.1659
@<TRIPOS>BOND
     1    18    17    1
     2    18    20    1
     3    20    21    1
     4    21    22    1
     5    22    23   ar
     6    23    24   ar
     7    24    25   ar
     8    25    28    1
     9    28    29    1
    10    28    30    1
    11    28    31    1
    12    25    26   ar
    13    26    27   ar
    14    18     1    1
    15     1     2    1
    16     2     3    1
    17     3     4    1
    18     4     5    1
    19     5     8    1
    20     8     9    1
    21     9    10   ar
    22    10    11    1
    23    10    12   ar
    24    12    13   ar
    25    13    14   ar
    26    14    15   ar
    27    15    16    1
    28     5     6    1
    29     6     7    1
    30    27    22   ar
    31     7     2    1
    32    15     9   ar
    33    17    19    1
@<TRIPOS>MOLECULE
*****
 31 33 0 0 0
SMALL
GASTEIGER

@<TRIPOS>ATOM
      1 C         138.2757  138.1634  162.6061 C.3     1  UNL1        0.1056
      2 N         139.1569  138.6578  163.7147 N.3     1  UNL1       -0.2682
      3 C         140.5162  139.2102  163.4027 C.3     1  UNL1        0.0897
      4 C         141.3975  139.7046  164.5112 C.3     1  UNL1        0.0899
      5 N         140.9195  139.6466  165.9319 N.3     1  UNL1       -0.2664
      6 C         139.5603  139.0943  166.2439 C.3     1  UNL1        0.0899
      7 C         138.6790  138.5999  165.1353 C.3     1  UNL1        0.0897
      8 C         141.8007  140.1410  167.0404 C.3     1  UNL1        0.1023
      9 C         141.2572  141.0964  168.0612 C.ar    1  UNL1        0.0319
     10 C         140.8155  142.4679  167.6445 C.ar    1  UNL1        0.1383
     11 F         140.9173  142.8842  166.2070 F       1  UNL1       -0.2044
     12 C         140.2721  143.4233  168.6652 C.ar    1  UNL1        0.0294
     13 C         140.1703  143.0071  170.1028 C.ar    1  UNL1        0.0032
     14 C         140.6120  141.6355  170.5195 C.ar    1  UNL1        0.0113
     15 C         141.1555  140.6801  169.4987 C.ar    1  UNL1        0.0572
     16 CL        141.5972  139.3085  169.9154 Cl      1  UNL1       -0.0825
     17 O         139.5171  138.1395  160.3240 O.3     1  UNL1       -0.3793
     18 C         138.4482  138.6986  161.2156 C.3     1  UNL1        0.1700
     19 H         139.4927  138.5926  159.4667 H       1  UNL1        0.2106
     20 C         137.5518  139.7929  160.7165 C.3     1  UNL1        0.2358
     21 O         138.0843  141.1867  160.5622 O.3     1  UNL1       -0.4728
     22 C         138.1594  142.0969  161.7521 C.ar    1  UNL1        0.1387
     23 C         137.4555  141.7280  163.0242 C.ar    1  UNL1        0.0368
     24 C         137.5307  142.6382  164.2141 C.ar    1  UNL1        0.0070
     25 C         138.3097  143.9174  164.1318 C.ar    1  UNL1        0.0716
     26 C         139.0137  144.2863  162.8597 C.ar    1  UNL1        0.0070
     27 C         138.9385  143.3761  161.6699 C.ar    1  UNL1        0.0368
     28 C         138.3849  144.8276  165.3218 C.3     1  UNL1        0.4186
     29 F         138.4601  145.7378  166.5117 F       1  UNL1       -0.1659
     30 F         136.9288  144.5918  165.5942 F       1  UNL1       -0.1659
     31 F         139.8410  145.0634  165.0494 F       1  UNL1       -0.1659
@<TRIPOS>BOND
     1    18    17    1
     2    18    20    1
     3    20    21    1
     4    21    22    1
     5    22    23   ar
     6    23    24   ar
     7    24    25   ar
     8    25    28    1
     9    28    29    1
    10    28    30    1
    11    28    31    1
    12    25    26   ar
    13    26    27   ar
    14    18     1    1
    15     1     2    1
    16     2     3    1
    17     3     4    1
    18     4     5    1
    19     5     8    1
    20     8     9    1
    21     9    10   ar
    22    10    11    1
    23    10    12   ar
    24    12    13   ar
    25    13    14   ar
    26    14    15   ar
    27    15    16    1
    28     5     6    1
    29     6     7    1
    30    27    22   ar
    31     7     2    1
    32    15     9   ar
    33    17    19    1
@<TRIPOS>MOLECULE
*****
 31 33 0 0 0
SMALL
GASTEIGER

@<TRIPOS>ATOM
      1 C         144.1333  140.5283  162.3543 C.3     1  UNL1        0.1056
      2 N         143.2917  140.3925  163.5885 N.3     1  UNL1       -0.2682
      3 C         143.9162  139.9441  164.8766 C.3     1  UNL1        0.0897
      4 C         143.0746  139.8084  166.1108 C.3     1  UNL1        0.0899
      5 N         141.6086  140.1210  166.0570 N.3     1  UNL1       -0.2664
      6 C         140.9840  140.5694  164.7690 C.3     1  UNL1        0.0899
      7 C         141.8256  140.7052  163.5348 C.3     1  UNL1        0.0897
      8 C         140.7670  139.9853  167.2912 C.3     1  UNL1        0.1023
      9 C         140.8943  140.9878  168.3998 C.ar    1  UNL1        0.0319
     10 C         140.4274  142.3982  168.1928 C.ar    1  UNL1        0.1383
     11 F         139.8333  142.8060  166.8772 F       1  UNL1       -0.2044
     12 C         140.5546  143.4006  169.3012 C.ar    1  UNL1        0.0294
     13 C         141.1487  142.9928  170.6168 C.ar    1  UNL1        0.0032
     14 C         141.6156  141.5824  170.8239 C.ar    1  UNL1        0.0113
     15 C         141.4884  140.5799  169.7153 C.ar    1  UNL1        0.0572
     16 CL        141.9552  139.1695  169.9223 Cl      1  UNL1       -0.0825
     17 O         146.2809  141.8557  162.9670 O.3     1  UNL1       -0.3793
     18 C         145.0133  141.7297  162.1750 C.3     1  UNL1        0.1700
     19 H         146.7275  142.6843  162.7327 H       1  UNL1        0.2106
     20 C         144.6256  142.8051  161.2038 C.3     1  UNL1        0.2358
     21 O         144.0730  144.1059  161.7063 O.3     1  UNL1       -0.4728
     22 C         142.7064  144.1519  162.3231 C.ar    1  UNL1        0.1387
     23 C         142.5548  144.4191  163.7913 C.ar    1  UNL1        0.0368
     24 C         141.1882  144.4651  164.4080 C.ar    1  UNL1        0.0070
     25 C         139.9733  144.2440  163.5565 C.ar    1  UNL1        0.0716
     26 C         140.1249  143.9768  162.0883 C.ar    1  UNL1        0.0070
     27 C         141.4915  143.9308  161.4716 C.ar    1  UNL1        0.0368
     28 C         138.6067  144.2900  164.1733 C.3     1  UNL1        0.4186
     29 F         137.2402  144.3361  164.7901 F       1  UNL1       -0.1659
     30 F         138.0961  143.3619  163.1114 F       1  UNL1       -0.1659
     31 F         139.1173  145.2182  165.2352 F       1  UNL1       -0.1659
@<TRIPOS>BOND
     1    18    17    1
     2    18    20    1
     3    20    21    1
     4    21    22    1
     5    22    23   ar
     6    23    24   ar
     7    24    25   ar
     8    25    28    1
     9    28    29    1
    10    28    30    1
    11    28    31    1
    12    25    26   ar
    13    26    27   ar
    14    18     1    1
    15     1     2    1
    16     2     3    1
    17     3     4    1
    18     4     5    1
    19     5     8    1
    20     8     9    1
    21     9    10   ar
    22    10    11    1
    23    10    12   ar
    24    12    13   ar
    25    13    14   ar
    26    14    15   ar
    27    15    16    1
    28     5     6    1
    29     6     7    1
    30    27    22   ar
    31     7     2    1
    32    15     9   ar
    33    17    19    1
@<TRIPOS>MOLECULE
*****
 31 33 0 0 0
SMALL
GASTEIGER

@<TRIPOS>ATOM
      1 C         141.6664  140.3675  170.1368 C.3     1  UNL1        0.1056
      2 N         142.1935  140.6334  168.7579 N.3     1  UNL1       -0.2682
      3 C         142.3439  142.0445  168.2716 C.3     1  UNL1        0.0897
      4 C         142.8710  142.3104  166.8927 C.3     1  UNL1        0.0899
      5 N         143.2478  141.1653  166.0000 N.3     1  UNL1       -0.2664
      6 C         143.0974  139.7543  166.4863 C.3     1  UNL1        0.0899
      7 C         142.5703  139.4883  167.8652 C.3     1  UNL1        0.0897
      8 C         143.7749  141.4312  164.6211 C.3     1  UNL1        0.1023
      9 C         143.3861  140.5340  163.4836 C.ar    1  UNL1        0.0319
     10 C         144.1991  139.3100  163.1821 C.ar    1  UNL1        0.1383
     11 F         145.4010  138.9833  164.0181 F       1  UNL1       -0.2044
     12 C         143.8104  138.4128  162.0446 C.ar    1  UNL1        0.0294
     13 C         142.6085  138.7396  161.2086 C.ar    1  UNL1        0.0032
     14 C         141.7954  139.9635  161.5101 C.ar    1  UNL1        0.0113
     15 C         142.1843  140.8607  162.6477 C.ar    1  UNL1        0.0572
     16 CL        141.3712  142.0846  162.9492 Cl      1  UNL1       -0.0825
     17 O         139.7763  139.3051  171.5681 O.3     1  UNL1       -0.3793
     18 C         140.2170  140.0360  170.3346 C.3     1  UNL1        0.1700
     19 H         138.8160  139.1715  171.5390 H       1  UNL1        0.2106
     20 C         139.2081  140.4354  169.2988 C.3     1  UNL1        0.2358
     21 O         138.3466  139.3930  168.6498 O.3     1  UNL1       -0.4728
     22 C         138.5664  139.0274  167.2117 C.ar    1  UNL1        0.1387
     23 C         138.0176  137.7396  166.6729 C.ar    1  UNL1        0.0368
     24 C         138.2375  137.3741  165.2348 C.ar    1  UNL1        0.0070
     25 C         139.0060  138.2965  164.3356 C.ar    1  UNL1        0.0716
     26 C         139.5548  139.5843  164.8744 C.ar    1  UNL1        0.0070
     27 C         139.3350  139.9497  166.3124 C.ar    1  UNL1        0.0368
     28 C         139.2258  137.9309  162.8974 C.3     1  UNL1        0.4186
     29 F         139.4456  137.5654  161.4594 F       1  UNL1       -0.1659
     30 F         138.0151  138.7272  162.5099 F       1  UNL1       -0.1659
     31 F         140.4365  137.1347  163.2849 F       1  UNL1       -0.1659
@<TRIPOS>BOND
     1    18    17    1
     2    18    20    1
     3    20    21    1
     4    21    22    1
     5    22    23   ar
     6    23    24   ar
     7    24    25   ar
     8    25    28    1
     9    28    29    1
    10    28    30    1
    11    28    31    1
    12    25    26   ar
    13    26    27   ar
    14    18     1    1
    15     1     2    1
    16     2     3    1
    17     3     4    1
    18     4     5    1
    19     5     8    1
    20     8     9    1
    21     9    10   ar
    22    10    11    1
    23    10    12   ar
    24    12    13   ar
    25    13    14   ar
    26    14    15   ar
    27    15    16    1
    28     5     6    1
    29     6     7    1
    30    27    22   ar
    31     7     2    1
    32    15     9   ar
    33    17    19    1
@<TRIPOS>MOLECULE
*****
 31 33 0 0 0
SMALL
GASTEIGER

@<TRIPOS>ATOM
      1 C         142.0948  144.6547  162.2641 C.3     1  UNL1        0.1056
      2 N         142.0306  143.6802  163.4026 N.3     1  UNL1       -0.2682
      3 C         143.0421  142.5772  163.5036 C.3     1  UNL1        0.0897
      4 C         142.9779  141.6027  164.6421 C.3     1  UNL1        0.0899
      5 N         141.9022  141.7311  165.6796 N.3     1  UNL1       -0.2664
      6 C         140.8908  142.8341  165.5786 C.3     1  UNL1        0.0899
      7 C         140.9549  143.8087  164.4401 C.3     1  UNL1        0.0897
      8 C         141.8381  140.7566  166.8180 C.3     1  UNL1        0.1023
      9 C         141.4768  141.2332  168.1937 C.ar    1  UNL1        0.0319
     10 C         142.3952  142.1622  168.9309 C.ar    1  UNL1        0.1383
     11 F         143.6749  142.6147  168.2923 F       1  UNL1       -0.2044
     12 C         142.0340  142.6387  170.3065 C.ar    1  UNL1        0.0294
     13 C         140.7543  142.1862  170.9451 C.ar    1  UNL1        0.0032
     14 C         139.8359  141.2572  170.2079 C.ar    1  UNL1        0.0113
     15 C         140.1971  140.7807  168.8322 C.ar    1  UNL1        0.0572
     16 CL        139.2787  139.8516  168.0951 Cl      1  UNL1       -0.0825
     17 O         140.3426  146.5705  162.1672 O.3     1  UNL1       -0.3793
     18 C         140.8310  145.2318  161.6987 C.3     1  UNL1        0.1700
     19 H         139.5195  146.7941  161.7052 H       1  UNL1        0.2106
     20 C         140.0555  144.4703  160.6649 C.3     1  UNL1        0.2358
     21 O         138.7480  143.8312  161.0282 O.3     1  UNL1       -0.4728
     22 C         138.7268  142.6063  161.8939 C.ar    1  UNL1        0.1387
     23 C         139.8071  141.5744  161.7598 C.ar    1  UNL1        0.0368
     24 C         139.7859  140.3496  162.6255 C.ar    1  UNL1        0.0070
     25 C         138.6844  140.1568  163.6253 C.ar    1  UNL1        0.0716
     26 C         137.6042  141.1888  163.7594 C.ar    1  UNL1        0.0070
     27 C         137.6254  142.4135  162.8937 C.ar    1  UNL1        0.0368
     28 C         138.6632  138.9319  164.4910 C.3     1  UNL1        0.4186
     29 F         138.6421  137.7071  165.3566 F       1  UNL1       -0.1659
     30 F         137.7355  139.6228  165.4459 F       1  UNL1       -0.1659
     31 F         139.5910  138.2410  163.5361 F       1  UNL1       -0.1659
@<TRIPOS>BOND
     1    18    17    1
     2    18    20    1
     3    20    21    1
     4    21    22    1
     5    22    23   ar
     6    23    24   ar
     7    24    25   ar
     8    25    28    1
     9    28    29    1
    10    28    30    1
    11    28    31    1
    12    25    26   ar
    13    26    27   ar
    14    18     1    1
    15     1     2    1
    16     2     3    1
    17     3     4    1
    18     4     5    1
    19     5     8    1
    20     8     9    1
    21     9    10   ar
    22    10    11    1
    23    10    12   ar
    24    12    13   ar
    25    13    14   ar
    26    14    15   ar
    27    15    16    1
    28     5     6    1
    29     6     7    1
    30    27    22   ar
    31     7     2    1
    32    15     9   ar
    33    17    19    1
@<TRIPOS>MOLECULE
*****
 31 33 0 0 0
SMALL
GASTEIGER

@<TRIPOS>ATOM
      1 C         141.2222  138.7615  158.6893 C.3     1  UNL1        0.1056
      2 N         142.0343  138.9720  159.9328 N.3     1  UNL1       -0.2682
      3 C         142.6721  140.3040  160.1956 C.3     1  UNL1        0.0897
      4 C         143.4841  140.5145  161.4391 C.3     1  UNL1        0.0899
      5 N         143.6584  139.3929  162.4198 N.3     1  UNL1       -0.2664
      6 C         143.0206  138.0609  162.1570 C.3     1  UNL1        0.0899
      7 C         142.2086  137.8504  160.9135 C.3     1  UNL1        0.0897
      8 C         144.4704  139.6034  163.6633 C.3     1  UNL1        0.1023
      9 C         143.8439  140.2371  164.8699 C.ar    1  UNL1        0.0319
     10 C         143.0614  139.3984  165.8365 C.ar    1  UNL1        0.1383
     11 F         142.9054  137.9259  165.5964 F       1  UNL1       -0.2044
     12 C         142.4348  140.0321  167.0430 C.ar    1  UNL1        0.0294
     13 C         142.5908  141.5045  167.2831 C.ar    1  UNL1        0.0032
     14 C         143.3733  142.3433  166.3166 C.ar    1  UNL1        0.0113
     15 C         143.9998  141.7095  165.1099 C.ar    1  UNL1        0.0572
     16 CL        144.7823  142.5482  164.1434 Cl      1  UNL1       -0.0825
     17 O         138.9631  138.9787  157.4248 O.3     1  UNL1       -0.3793
     18 C         139.7465  139.0296  158.7030 C.3     1  UNL1        0.1700
     19 H         138.0310  139.1744  157.6089 H       1  UNL1        0.2106
     20 C         139.0541  139.3486  159.9949 C.3     1  UNL1        0.2358
     21 O         138.7032  138.2463  160.9498 O.3     1  UNL1       -0.4728
     22 C         138.6659  138.5155  162.4250 C.ar    1  UNL1        0.1387
     23 C         139.0905  137.4509  163.3926 C.ar    1  UNL1        0.0368
     24 C         139.0532  137.7202  164.8678 C.ar    1  UNL1        0.0070
     25 C         138.5914  139.0540  165.3753 C.ar    1  UNL1        0.0716
     26 C         138.1668  140.1186  164.4077 C.ar    1  UNL1        0.0070
     27 C         138.2041  139.8494  162.9325 C.ar    1  UNL1        0.0368
     28 C         138.5541  139.3232  166.8505 C.3     1  UNL1        0.4186
     29 F         138.5169  139.5924  168.3257 F       1  UNL1       -0.1659
     30 F         139.2224  140.6472  166.6258 F       1  UNL1       -0.1659
     31 F         137.8859  137.9992  167.0752 F       1  UNL1       -0.1659
@<TRIPOS>BOND
     1    18    17    1
     2    18    20    1
     3    20    21    1
     4    21    22    1
     5    22    23   ar
     6    23    24   ar
     7    24    25   ar
     8    25    28    1
     9    28    29    1
    10    28    30    1
    11    28    31    1
    12    25    26   ar
    13    26    27   ar
    14    18     1    1
    15     1     2    1
    16     2     3    1
    17     3     4    1
    18     4     5    1
    19     5     8    1
    20     8     9    1
    21     9    10   ar
    22    10    11    1
    23    10    12   ar
    24    12    13   ar
    25    13    14   ar
    26    14    15   ar
    27    15    16    1
    28     5     6    1
    29     6     7    1
    30    27    22   ar
    31     7     2    1
    32    15     9   ar
    33    17    19    1
@<TRIPOS>MOLECULE
*****
 31 33 0 0 0
SMALL
GASTEIGER

@<TRIPOS>ATOM
      1 C         141.6620  139.8899  170.2610 C.3     1  UNL1        0.1056
      2 N         142.2128  140.2433  168.9113 N.3     1  UNL1       -0.2682
      3 C         142.3105  141.6808  168.4940 C.3     1  UNL1        0.0897
      4 C         142.8614  142.0342  167.1444 C.3     1  UNL1        0.0899
      5 N         143.3146  140.9501  166.2120 N.3     1  UNL1       -0.2664
      6 C         143.2170  139.5127  166.6292 C.3     1  UNL1        0.0899
      7 C         142.6661  139.1592  167.9789 C.3     1  UNL1        0.0897
      8 C         143.8655  141.3035  164.8623 C.3     1  UNL1        0.1023
      9 C         143.4324  142.5691  164.1834 C.ar    1  UNL1        0.0319
     10 C         144.0285  143.8827  164.5948 C.ar    1  UNL1        0.1383
     11 F         145.0576  143.9307  165.6851 F       1  UNL1       -0.2044
     12 C         143.5955  145.1482  163.9159 C.ar    1  UNL1        0.0294
     13 C         142.5664  145.1002  162.8255 C.ar    1  UNL1        0.0032
     14 C         141.9704  143.7866  162.4142 C.ar    1  UNL1        0.0113
     15 C         142.4034  142.5210  163.0931 C.ar    1  UNL1        0.0572
     16 CL        141.8074  141.2074  162.6817 Cl      1  UNL1       -0.0825
     17 O         139.6345  139.0559  171.6552 O.3     1  UNL1       -0.3793
     18 C         140.1793  139.7820  170.4610 C.3     1  UNL1        0.1700
     19 H         138.6650  139.0790  171.6331 H       1  UNL1        0.2106
     20 C         139.2414  140.4001  169.4669 C.3     1  UNL1        0.2358
     21 O         138.3032  139.5328  168.6811 O.3     1  UNL1       -0.4728
     22 C         138.6427  139.1449  167.2724 C.ar    1  UNL1        0.1387
     23 C         139.5437  140.0180  166.4504 C.ar    1  UNL1        0.0368
     24 C         139.8831  139.6300  165.0418 C.ar    1  UNL1        0.0070
     25 C         139.3215  138.3689  164.4552 C.ar    1  UNL1        0.0716
     26 C         138.4204  137.4957  165.2772 C.ar    1  UNL1        0.0070
     27 C         138.0810  137.8837  166.6858 C.ar    1  UNL1        0.0368
     28 C         139.6609  137.9809  163.0465 C.3     1  UNL1        0.4186
     29 F         140.0003  137.5929  161.6379 F       1  UNL1       -0.1659
     30 F         141.1216  138.1030  163.3648 F       1  UNL1       -0.1659
     31 F         138.2002  137.8588  162.7282 F       1  UNL1       -0.1659
@<TRIPOS>BOND
     1    18    17    1
     2    18    20    1
     3    20    21    1
     4    21    22    1
     5    22    23   ar
     6    23    24   ar
     7    24    25   ar
     8    25    28    1
     9    28    29    1
    10    28    30    1
    11    28    31    1
    12    25    26   ar
    13    26    27   ar
    14    18     1    1
    15     1     2    1
    16     2     3    1
    17     3     4    1
    18     4     5    1
    19     5     8    1
    20     8     9    1
    21     9    10   ar
    22    10    11    1
    23    10    12   ar
    24    12    13   ar
    25    13    14   ar
    26    14    15   ar
    27    15    16    1
    28     5     6    1
    29     6     7    1
    30    27    22   ar
    31     7     2    1
    32    15     9   ar
    33    17    19    1
@<TRIPOS>MOLECULE
*****
 31 33 0 0 0
SMALL
GASTEIGER

@<TRIPOS>ATOM
      1 C         141.8838  140.3361  169.8196 C.3     1  UNL1        0.1056
      2 N         142.3414  140.5470  168.4068 N.3     1  UNL1       -0.2682
      3 C         142.6328  141.9327  167.9117 C.3     1  UNL1        0.0897
      4 C         143.0904  142.1436  166.4989 C.3     1  UNL1        0.0899
      5 N         143.2566  140.9689  165.5810 N.3     1  UNL1       -0.2664
      6 C         142.9652  139.5833  166.0760 C.3     1  UNL1        0.0899
      7 C         142.5076  139.3723  167.4889 C.3     1  UNL1        0.0897
      8 C         143.7142  141.1798  164.1682 C.3     1  UNL1        0.1023
      9 C         142.7556  140.9807  163.0317 C.ar    1  UNL1        0.0319
     10 C         141.6568  141.9739  162.7946 C.ar    1  UNL1        0.1383
     11 F         141.5166  143.1662  163.6940 F       1  UNL1       -0.2044
     12 C         140.6982  141.7749  161.6582 C.ar    1  UNL1        0.0294
     13 C         140.8384  140.5826  160.7588 C.ar    1  UNL1        0.0032
     14 C         141.9372  139.5893  160.9959 C.ar    1  UNL1        0.0113
     15 C         142.8958  139.7884  162.1324 C.ar    1  UNL1        0.0572
     16 CL        143.9945  138.7952  162.3695 Cl      1  UNL1       -0.0825
     17 O         140.0216  139.4474  171.3982 O.3     1  UNL1       -0.3793
     18 C         140.4318  140.0968  170.1098 C.3     1  UNL1        0.1700
     19 H         139.0553  139.3675  171.4267 H       1  UNL1        0.2106
     20 C         139.3899  140.5068  169.1115 C.3     1  UNL1        0.2358
     21 O         138.4889  139.4746  168.5010 O.3     1  UNL1       -0.4728
     22 C         138.6406  139.1080  167.0543 C.ar    1  UNL1        0.1387
     23 C         139.1751  140.1134  166.0779 C.ar    1  UNL1        0.0368
     24 C         139.3267  139.7468  164.6313 C.ar    1  UNL1        0.0070
     25 C         138.9439  138.3748  164.1612 C.ar    1  UNL1        0.0716
     26 C         138.4094  137.3694  165.1377 C.ar    1  UNL1        0.0070
     27 C         138.2578  137.7360  166.5842 C.ar    1  UNL1        0.0368
     28 C         139.0956  138.0082  162.7146 C.3     1  UNL1        0.4186
     29 F         139.2472  137.6416  161.2680 F       1  UNL1       -0.1659
     30 F         140.3578  137.2640  163.0355 F       1  UNL1       -0.1659
     31 F         137.8334  138.7523  162.3937 F       1  UNL1       -0.1659
@<TRIPOS>BOND
     1    18    17    1
     2    18    20    1
     3    20    21    1
     4    21    22    1
     5    22    23   ar
     6    23    24   ar
     7    24    25   ar
     8    25    28    1
     9    28    29    1
    10    28    30    1
    11    28    31    1
    12    25    26   ar
    13    26    27   ar
    14    18     1    1
    15     1     2    1
    16     2     3    1
    17     3     4    1
    18     4     5    1
    19     5     8    1
    20     8     9    1
    21     9    10   ar
    22    10    11    1
    23    10    12   ar
    24    12    13   ar
    25    13    14   ar
    26    14    15   ar
    27    15    16    1
    28     5     6    1
    29     6     7    1
    30    27    22   ar
    31     7     2    1
    32    15     9   ar
    33    17    19    1
@<TRIPOS>MOLECULE
*****
 31 33 0 0 0
SMALL
GASTEIGER

@<TRIPOS>ATOM
      1 C         138.9582  139.6529  167.7017 C.3     1  UNL1        0.1056
      2 N         140.1791  140.3842  167.2278 N.3     1  UNL1       -0.2682
      3 C         140.0888  141.8361  166.8618 C.3     1  UNL1        0.0897
      4 C         141.3097  142.5675  166.3879 C.3     1  UNL1        0.0899
      5 N         142.6208  141.8470  166.2800 N.3     1  UNL1       -0.2664
      6 C         142.7112  140.3951  166.6459 C.3     1  UNL1        0.0899
      7 C         141.4903  139.6637  167.1199 C.3     1  UNL1        0.0897
      8 C         143.8417  142.5783  165.8061 C.3     1  UNL1        0.1023
      9 C         144.0821  142.7633  164.3370 C.ar    1  UNL1        0.0319
     10 C         143.5573  143.9828  163.6389 C.ar    1  UNL1        0.1383
     11 F         142.7921  145.0174  164.4099 F       1  UNL1       -0.2044
     12 C         143.7977  144.1679  162.1700 C.ar    1  UNL1        0.0294
     13 C         144.5630  143.1334  161.3990 C.ar    1  UNL1        0.0032
     14 C         145.0878  141.9139  162.0971 C.ar    1  UNL1        0.0113
     15 C         144.8473  141.7288  163.5662 C.ar    1  UNL1        0.0572
     16 CL        145.3721  140.5093  164.2643 Cl      1  UNL1       -0.0825
     17 O         136.9552  138.0700  167.2199 O.3     1  UNL1       -0.3793
     18 C         138.1848  138.7892  166.7500 C.3     1  UNL1        0.1700
     19 H         136.5784  137.5601  166.4858 H       1  UNL1        0.2106
     20 C         138.6409  138.6448  165.3283 C.3     1  UNL1        0.2358
     21 O         137.9643  139.4251  164.2406 O.3     1  UNL1       -0.4728
     22 C         138.4719  140.7864  163.8671 C.ar    1  UNL1        0.1387
     23 C         137.6290  141.9991  164.1292 C.ar    1  UNL1        0.0368
     24 C         138.1366  143.3603  163.7558 C.ar    1  UNL1        0.0070
     25 C         139.4872  143.5087  163.1203 C.ar    1  UNL1        0.0716
     26 C         140.3302  142.2960  162.8582 C.ar    1  UNL1        0.0070
     27 C         139.8225  140.9348  163.2316 C.ar    1  UNL1        0.0368
     28 C         139.9948  144.8700  162.7468 C.3     1  UNL1        0.4186
     29 F         140.5024  146.2312  162.3735 F       1  UNL1       -0.1659
     30 F         140.6149  144.2985  161.5064 F       1  UNL1       -0.1659
     31 F         139.3748  145.4414  163.9873 F       1  UNL1       -0.1659
@<TRIPOS>BOND
     1    18    17    1
     2    18    20    1
     3    20    21    1
     4    21    22    1
     5    22    23   ar
     6    23    24   ar
     7    24    25   ar
     8    25    28    1
     9    28    29    1
    10    28    30    1
    11    28    31    1
    12    25    26   ar
    13    26    27   ar
    14    18     1    1
    15     1     2    1
    16     2     3    1
    17     3     4    1
    18     4     5    1
    19     5     8    1
    20     8     9    1
    21     9    10   ar
    22    10    11    1
    23    10    12   ar
    24    12    13   ar
    25    13    14   ar
    26    14    15   ar
    27    15    16    1
    28     5     6    1
    29     6     7    1
    30    27    22   ar
    31     7     2    1
    32    15     9   ar
    33    17    19    1
