@<TRIPOS>MOLECULE
*****
 35 38 0 0 0
SMALL
GASTEIGER

@<TRIPOS>ATOM
      1 C         140.7028  140.7209  162.6383 C.ar    1  UNL1        0.2437
      2 C         139.3646  141.2358  162.1974 C.ar    1  UNL1        0.0608
      3 C         139.2719  142.1976  161.0501 C.ar    1  UNL1        0.0258
      4 C         140.5175  142.6445  160.3436 C.ar    1  UNL1        0.1060
      5 N         141.8555  142.1296  160.7845 N.ar    1  UNL1       -0.1450
      6 N         141.9482  141.1678  161.9318 N.ar    1  UNL1       -0.1103
      7 C         140.4248  143.6063  159.1963 C.ar    1  UNL1        0.0532
      8 C         139.5776  143.2724  158.0042 C.ar    1  UNL1        0.0061
      9 C         139.4850  144.2342  156.8569 C.ar    1  UNL1        0.0194
     10 C         140.2394  145.5299  156.9016 C.ar    1  UNL1        0.0859
     11 C         141.0865  145.8638  158.0936 C.ar    1  UNL1        0.0558
     12 C         141.1792  144.9020  159.2410 C.ar    1  UNL1        0.1366
     13 O         142.0263  145.2359  160.4330 O.3     1  UNL1       -0.5054
     14 H         142.4976  146.0453  160.4609 H       1  UNL1        0.2922
     15 N         140.1468  146.4917  155.7543 N.ar    1  UNL1       -0.2280
     16 C         139.2418  147.6853  155.6753 C.ar    1  UNL1        0.1020
     17 C         139.4785  148.3601  154.3567 C.ar    1  UNL1        0.0431
     18 C         140.5298  147.5835  153.6208 C.ar    1  UNL1        0.1221
     19 N         140.9428  146.4288  154.4845 N.ar    1  UNL1       -0.1635
     20 O         140.7955  139.7591  163.7856 O.3     1  UNL1       -0.4629
     21 C         142.7646  142.3431  167.8135 C.3     1  UNL1        0.0161
     22 C         142.2103  141.6960  166.9474 C.3     1  UNL1        0.0491
     23 C         143.4066  142.3425  166.3140 C.3     1  UNL1        0.0161
     24 C         142.0735  141.1802  165.5455 C.3     1  UNL1        0.0583
     25 C         140.9323  140.2749  165.1875 C.3     1  UNL1        0.1702
     26 C         139.9279  139.8856  166.2313 C.3     1  UNL1        0.0583
     27 C         140.0647  140.4014  167.6331 C.3     1  UNL1        0.0491
     28 C         138.8210  139.5758  167.7797 C.3     1  UNL1        0.0161
     29 C         139.7696  140.6305  169.0858 C.3     1  UNL1        0.0161
     30 N         141.2059  141.3066  167.9911 N.3     1  UNL1       -0.2704
     31 C         141.3427  141.8224  169.3931 C.3     1  UNL1        0.1765
     32 C         141.0241  143.2559  169.6992 C.3     1  UNL1        0.4121
     33 F         140.7055  144.6893  170.0053 F       1  UNL1       -0.1685
     34 F         140.0627  143.3544  168.9628 F       1  UNL1       -0.1685
     35 F         142.1809  143.3094  170.6526 F       1  UNL1       -0.1685
@<TRIPOS>BOND
     1    21    22    1
     2    22    23    1
     3    22    24    1
     4    24    25    1
     5    25    20    1
     6    20     1    1
     7     1     2   ar
     8     2     3   ar
     9     3     4   ar
    10     4     7    1
    11     7     8   ar
    12     8     9   ar
    13     9    10   ar
    14    10    15    1
    15    15    16   ar
    16    16    17   ar
    17    17    18   ar
    18    18    19   ar
    19    10    11   ar
    20    11    12   ar
    21    12    13    1
    22     4     5   ar
    23     5     6   ar
    24    25    26    1
    25    26    27    1
    26    27    28    1
    27    27    29    1
    28    27    30    1
    29    30    31    1
    30    31    32    1
    31    32    33    1
    32    32    34    1
    33    32    35    1
    34    30    22    1
    35     6     1   ar
    36    12     7   ar
    37    19    15   ar
    38    13    14    1
@<TRIPOS>MOLECULE
*****
 35 38 0 0 0
SMALL
GASTEIGER

@<TRIPOS>ATOM
      1 C         141.0385  138.9467  159.3062 C.ar    1  UNL1        0.2437
      2 C         141.1038  140.4134  158.9989 C.ar    1  UNL1        0.0608
      3 C         142.2570  140.9646  158.2138 C.ar    1  UNL1        0.0258
      4 C         143.3449  140.0490  157.7361 C.ar    1  UNL1        0.1060
      5 N         143.2796  138.5823  158.0435 N.ar    1  UNL1       -0.1450
      6 N         142.1264  138.0311  158.8286 N.ar    1  UNL1       -0.1103
      7 C         144.4981  140.6001  156.9511 C.ar    1  UNL1        0.0532
      8 C         145.2563  141.7878  157.4656 C.ar    1  UNL1        0.0061
      9 C         146.4095  142.3390  156.6805 C.ar    1  UNL1        0.0194
     10 C         146.8046  141.7024  155.3810 C.ar    1  UNL1        0.0859
     11 C         146.0465  140.5148  154.8665 C.ar    1  UNL1        0.0558
     12 C         144.8932  139.9636  155.6516 C.ar    1  UNL1        0.1366
     13 O         144.1351  138.7759  155.1371 O.3     1  UNL1       -0.5054
     14 H         144.3819  138.3783  154.3253 H       1  UNL1        0.2922
     15 N         147.9578  142.2536  154.5959 N.ar    1  UNL1       -0.2280
     16 C         147.9034  143.4123  153.6449 C.ar    1  UNL1        0.1020
     17 C         149.2799  143.6177  153.0852 C.ar    1  UNL1        0.0431
     18 C         150.1850  142.5859  153.6904 C.ar    1  UNL1        0.1221
     19 N         149.3679  141.7429  154.6240 N.ar    1  UNL1       -0.1635
     20 O         139.8853  138.3955  160.0913 O.3     1  UNL1       -0.4629
     21 C         140.4688  138.2091  165.2297 C.3     1  UNL1        0.0161
     22 C         140.2543  138.3531  164.0425 C.3     1  UNL1        0.0491
     23 C         141.1869  137.1865  164.1814 C.3     1  UNL1        0.0161
     24 C         140.4243  137.9824  162.5991 C.3     1  UNL1        0.0583
     25 C         139.7152  138.7663  161.5348 C.3     1  UNL1        0.1702
     26 C         138.8361  139.9209  161.9140 C.3     1  UNL1        0.0583
     27 C         138.6660  140.2917  163.3575 C.3     1  UNL1        0.0491
     28 C         137.7925  141.3295  162.7174 C.3     1  UNL1        0.0161
     29 C         138.1926  141.0229  164.5786 C.3     1  UNL1        0.0161
     30 N         139.3752  139.5078  164.4217 N.3     1  UNL1       -0.2704
     31 C         139.2051  139.8786  165.8652 C.3     1  UNL1        0.1765
     32 C         138.2773  139.0870  166.7386 C.3     1  UNL1        0.4121
     33 F         137.3496  138.2955  167.6120 F       1  UNL1       -0.1685
     34 F         137.5725  138.6518  165.8497 F       1  UNL1       -0.1685
     35 F         139.0401  139.5312  167.9514 F       1  UNL1       -0.1685
@<TRIPOS>BOND
     1    21    22    1
     2    22    23    1
     3    22    24    1
     4    24    25    1
     5    25    20    1
     6    20     1    1
     7     1     2   ar
     8     2     3   ar
     9     3     4   ar
    10     4     7    1
    11     7     8   ar
    12     8     9   ar
    13     9    10   ar
    14    10    15    1
    15    15    16   ar
    16    16    17   ar
    17    17    18   ar
    18    18    19   ar
    19    10    11   ar
    20    11    12   ar
    21    12    13    1
    22     4     5   ar
    23     5     6   ar
    24    25    26    1
    25    26    27    1
    26    27    28    1
    27    27    29    1
    28    27    30    1
    29    30    31    1
    30    31    32    1
    31    32    33    1
    32    32    34    1
    33    32    35    1
    34    30    22    1
    35     6     1   ar
    36    12     7   ar
    37    19    15   ar
    38    13    14    1
@<TRIPOS>MOLECULE
*****
 35 38 0 0 0
SMALL
GASTEIGER

@<TRIPOS>ATOM
      1 C         142.6085  138.5819  158.5107 C.ar    1  UNL1        0.2437
      2 C         141.3199  138.2477  159.2020 C.ar    1  UNL1        0.0608
      3 C         141.2050  138.4018  160.6896 C.ar    1  UNL1        0.0258
      4 C         142.3787  138.8902  161.4859 C.ar    1  UNL1        0.1060
      5 N         143.6672  139.2244  160.7946 N.ar    1  UNL1       -0.1450
      6 N         143.7821  139.0702  159.3070 N.ar    1  UNL1       -0.1103
      7 C         142.2637  139.0443  162.9735 C.ar    1  UNL1        0.0532
      8 C         140.9117  139.1528  163.6141 C.ar    1  UNL1        0.0061
      9 C         140.7968  139.3069  165.1017 C.ar    1  UNL1        0.0194
     10 C         142.0339  139.3525  165.9488 C.ar    1  UNL1        0.0859
     11 C         143.3859  139.2440  165.3082 C.ar    1  UNL1        0.0558
     12 C         143.5008  139.0899  163.8206 C.ar    1  UNL1        0.1366
     13 O         144.8529  138.9813  163.1801 O.3     1  UNL1       -0.5054
     14 H         145.6256  139.0098  163.7092 H       1  UNL1        0.2922
     15 N         141.9190  139.5066  167.4364 N.ar    1  UNL1       -0.2280
     16 C         140.7438  140.0741  168.1759 C.ar    1  UNL1        0.1020
     17 C         141.0576  140.0386  169.6423 C.ar    1  UNL1        0.0431
     18 C         142.4267  139.4491  169.8091 C.ar    1  UNL1        0.1221
     19 N         142.9591  139.1203  168.4458 N.ar    1  UNL1       -0.1635
     20 O         142.7234  138.4278  157.0230 O.3     1  UNL1       -0.4629
     21 C         143.2254  133.2919  156.6366 C.3     1  UNL1        0.0161
     22 C         143.0702  134.4965  156.6047 C.3     1  UNL1        0.0491
     23 C         143.5352  134.1507  157.9882 C.3     1  UNL1        0.0161
     24 C         143.0936  135.8638  157.2210 C.3     1  UNL1        0.0583
     25 C         142.7000  137.0604  156.4066 C.3     1  UNL1        0.1702
     26 C         142.2829  136.8897  154.9760 C.3     1  UNL1        0.0583
     27 C         142.2595  135.5224  154.3597 C.3     1  UNL1        0.0491
     28 C         141.8026  136.3431  153.1902 C.3     1  UNL1        0.0161
     29 C         142.0774  134.4401  153.3372 C.3     1  UNL1        0.0161
     30 N         142.6531  134.3258  155.1740 N.3     1  UNL1       -0.2704
     31 C         142.6297  132.9585  154.5576 C.3     1  UNL1        0.1765
     32 C         141.4057  132.1004  154.6826 C.3     1  UNL1        0.4121
     33 F         140.1818  131.2423  154.8076 F       1  UNL1       -0.1685
     34 F         140.7709  132.8510  155.3967 F       1  UNL1       -0.1685
     35 F         142.0451  131.0614  153.8098 F       1  UNL1       -0.1685
@<TRIPOS>BOND
     1    21    22    1
     2    22    23    1
     3    22    24    1
     4    24    25    1
     5    25    20    1
     6    20     1    1
     7     1     2   ar
     8     2     3   ar
     9     3     4   ar
    10     4     7    1
    11     7     8   ar
    12     8     9   ar
    13     9    10   ar
    14    10    15    1
    15    15    16   ar
    16    16    17   ar
    17    17    18   ar
    18    18    19   ar
    19    10    11   ar
    20    11    12   ar
    21    12    13    1
    22     4     5   ar
    23     5     6   ar
    24    25    26    1
    25    26    27    1
    26    27    28    1
    27    27    29    1
    28    27    30    1
    29    30    31    1
    30    31    32    1
    31    32    33    1
    32    32    34    1
    33    32    35    1
    34    30    22    1
    35     6     1   ar
    36    12     7   ar
    37    19    15   ar
    38    13    14    1
@<TRIPOS>MOLECULE
*****
 35 38 0 0 0
SMALL
GASTEIGER

@<TRIPOS>ATOM
      1 C         140.4024  140.6525  162.5279 C.ar    1  UNL1        0.2437
      2 C         139.1116  141.3506  162.2169 C.ar    1  UNL1        0.0608
      3 C         139.0459  142.3390  161.0905 C.ar    1  UNL1        0.0258
      4 C         140.2711  142.6293  160.2751 C.ar    1  UNL1        0.1060
      5 N         141.5618  141.9313  160.5861 N.ar    1  UNL1       -0.1450
      6 N         141.6274  140.9429  161.7125 N.ar    1  UNL1       -0.1103
      7 C         140.2054  143.6178  159.1488 C.ar    1  UNL1        0.0532
      8 C         139.3502  143.3328  157.9498 C.ar    1  UNL1        0.0061
      9 C         139.2845  144.3212  156.8234 C.ar    1  UNL1        0.0194
     10 C         140.0741  145.5946  156.8960 C.ar    1  UNL1        0.0859
     11 C         140.9293  145.8795  158.0949 C.ar    1  UNL1        0.0558
     12 C         140.9949  144.8911  159.2213 C.ar    1  UNL1        0.1366
     13 O         141.8501  145.1760  160.4203 O.3     1  UNL1       -0.5054
     14 H         142.3433  145.9714  160.4656 H       1  UNL1        0.2922
     15 N         140.0084  146.5830  155.7696 N.ar    1  UNL1       -0.2280
     16 C         140.6854  146.4483  154.4378 C.ar    1  UNL1        0.1020
     17 C         140.3496  147.6617  153.6224 C.ar    1  UNL1        0.0431
     18 C         139.4652  148.5463  154.4502 C.ar    1  UNL1        0.1221
     19 N         139.2544  147.8796  155.7772 N.ar    1  UNL1       -0.1635
     20 O         140.4680  139.6641  163.6543 O.3     1  UNL1       -0.4629
     21 C         139.6652  140.3564  168.7193 C.3     1  UNL1        0.0161
     22 C         139.9602  140.2637  167.5444 C.3     1  UNL1        0.0491
     23 C         138.6782  139.5088  167.7356 C.3     1  UNL1        0.0161
     24 C         139.7267  139.7875  166.1413 C.3     1  UNL1        0.0583
     25 C         140.7016  140.1404  165.0574 C.3     1  UNL1        0.1702
     26 C         141.9102  140.9696  165.3765 C.3     1  UNL1        0.0583
     27 C         142.1437  141.4459  166.7796 C.3     1  UNL1        0.0491
     28 C         143.3446  142.0353  166.1012 C.3     1  UNL1        0.0161
     29 C         142.7943  142.1268  167.9470 C.3     1  UNL1        0.0161
     30 N         141.1687  141.0929  167.8635 N.3     1  UNL1       -0.2704
     31 C         141.4023  141.5692  169.2666 C.3     1  UNL1        0.1765
     32 C         140.6872  142.7861  169.7744 C.3     1  UNL1        0.4121
     33 F         139.9721  144.0029  170.2822 F       1  UNL1       -0.1685
     34 F         140.3788  143.2398  168.6902 F       1  UNL1       -0.1685
     35 F         140.9830  142.3712  171.1852 F       1  UNL1       -0.1685
@<TRIPOS>BOND
     1    21    22    1
     2    22    23    1
     3    22    24    1
     4    24    25    1
     5    25    20    1
     6    20     1    1
     7     1     2   ar
     8     2     3   ar
     9     3     4   ar
    10     4     7    1
    11     7     8   ar
    12     8     9   ar
    13     9    10   ar
    14    10    15    1
    15    15    16   ar
    16    16    17   ar
    17    17    18   ar
    18    18    19   ar
    19    10    11   ar
    20    11    12   ar
    21    12    13    1
    22     4     5   ar
    23     5     6   ar
    24    25    26    1
    25    26    27    1
    26    27    28    1
    27    27    29    1
    28    27    30    1
    29    30    31    1
    30    31    32    1
    31    32    33    1
    32    32    34    1
    33    32    35    1
    34    30    22    1
    35     6     1   ar
    36    12     7   ar
    37    19    15   ar
    38    13    14    1
@<TRIPOS>MOLECULE
*****
 35 38 0 0 0
SMALL
GASTEIGER

@<TRIPOS>ATOM
      1 C         142.6069  138.4800  158.4910 C.ar    1  UNL1        0.2437
      2 C         141.2848  138.2787  159.1703 C.ar    1  UNL1        0.0608
      3 C         141.1740  138.4375  160.6578 C.ar    1  UNL1        0.0258
      4 C         142.3854  138.7976  161.4659 C.ar    1  UNL1        0.1060
      5 N         143.7075  138.9988  160.7865 N.ar    1  UNL1       -0.1450
      6 N         143.8183  138.8400  159.2990 N.ar    1  UNL1       -0.1103
      7 C         142.2747  138.9564  162.9533 C.ar    1  UNL1        0.0532
      8 C         140.9240  139.0039  163.6040 C.ar    1  UNL1        0.0061
      9 C         140.8132  139.1627  165.0915 C.ar    1  UNL1        0.0194
     10 C         142.0532  139.2740  165.9282 C.ar    1  UNL1        0.0859
     11 C         143.4038  139.2264  165.2775 C.ar    1  UNL1        0.0558
     12 C         143.5146  139.0676  163.7901 C.ar    1  UNL1        0.1366
     13 O         144.8653  139.0201  163.1394 O.3     1  UNL1       -0.5054
     14 H         145.6399  139.0896  163.6621 H       1  UNL1        0.2922
     15 N         141.9425  139.4328  167.4157 N.ar    1  UNL1       -0.2280
     16 C         140.7814  140.0293  168.1547 C.ar    1  UNL1        0.1020
     17 C         141.0947  139.9881  169.6211 C.ar    1  UNL1        0.0431
     18 C         142.4494  139.3661  169.7883 C.ar    1  UNL1        0.1221
     19 N         142.9733  139.0229  168.4253 N.ar    1  UNL1       -0.1635
     20 O         142.7177  138.3212  157.0035 O.3     1  UNL1       -0.4629
     21 C         142.0975  134.6184  153.4421 C.3     1  UNL1        0.0161
     22 C         142.2817  135.3951  154.3581 C.3     1  UNL1        0.0491
     23 C         141.7945  136.2012  153.1906 C.3     1  UNL1        0.0161
     24 C         142.2846  136.7654  154.9683 C.3     1  UNL1        0.0583
     25 C         142.7148  136.9509  156.3933 C.3     1  UNL1        0.1702
     26 C         143.1422  135.7661  157.2080 C.3     1  UNL1        0.0583
     27 C         143.1393  134.3959  156.5977 C.3     1  UNL1        0.0491
     28 C         143.6275  134.0657  157.9770 C.3     1  UNL1        0.0161
     29 C         143.3060  132.9110  156.4665 C.3     1  UNL1        0.0161
     30 N         142.7091  134.2104  155.1728 N.3     1  UNL1       -0.2704
     31 C         142.7062  132.8401  154.5625 C.3     1  UNL1        0.1765
     32 C         141.4205  132.0778  154.4369 C.3     1  UNL1        0.4121
     33 F         140.1348  131.3155  154.3112 F       1  UNL1       -0.1685
     34 F         140.8178  132.6575  155.3184 F       1  UNL1       -0.1685
     35 F         142.0121  131.2632  153.3249 F       1  UNL1       -0.1685
@<TRIPOS>BOND
     1    21    22    1
     2    22    23    1
     3    22    24    1
     4    24    25    1
     5    25    20    1
     6    20     1    1
     7     1     2   ar
     8     2     3   ar
     9     3     4   ar
    10     4     7    1
    11     7     8   ar
    12     8     9   ar
    13     9    10   ar
    14    10    15    1
    15    15    16   ar
    16    16    17   ar
    17    17    18   ar
    18    18    19   ar
    19    10    11   ar
    20    11    12   ar
    21    12    13    1
    22     4     5   ar
    23     5     6   ar
    24    25    26    1
    25    26    27    1
    26    27    28    1
    27    27    29    1
    28    27    30    1
    29    30    31    1
    30    31    32    1
    31    32    33    1
    32    32    34    1
    33    32    35    1
    34    30    22    1
    35     6     1   ar
    36    12     7   ar
    37    19    15   ar
    38    13    14    1
@<TRIPOS>MOLECULE
*****
 35 38 0 0 0
SMALL
GASTEIGER

@<TRIPOS>ATOM
      1 C         140.6566  139.8089  159.1989 C.ar    1  UNL1        0.2437
      2 C         141.5230  138.7425  158.5971 C.ar    1  UNL1        0.0608
      3 C         142.7834  139.1185  157.8760 C.ar    1  UNL1        0.0258
      4 C         143.1774  140.5609  157.7567 C.ar    1  UNL1        0.1060
      5 N         142.3110  141.6273  158.3584 N.ar    1  UNL1       -0.1450
      6 N         141.0506  141.2513  159.0796 N.ar    1  UNL1       -0.1103
      7 C         144.4377  140.9369  157.0355 C.ar    1  UNL1        0.0532
      8 C         144.8047  140.2450  155.7561 C.ar    1  UNL1        0.0061
      9 C         146.0651  140.6210  155.0350 C.ar    1  UNL1        0.0194
     10 C         146.9585  141.6889  155.5932 C.ar    1  UNL1        0.0859
     11 C         146.5915  142.3807  156.8725 C.ar    1  UNL1        0.0558
     12 C         145.3312  142.0047  157.5937 C.ar    1  UNL1        0.1366
     13 O         144.9642  142.6966  158.8730 O.3     1  UNL1       -0.5054
     14 H         145.5223  143.3636  159.2217 H       1  UNL1        0.2922
     15 N         148.2189  142.0648  154.8721 N.ar    1  UNL1       -0.2280
     16 C         149.6022  141.5936  155.2101 C.ar    1  UNL1        0.1020
     17 C         150.5556  142.2156  154.2332 C.ar    1  UNL1        0.0431
     18 C         149.7614  143.0713  153.2914 C.ar    1  UNL1        0.1221
     19 N         148.3173  142.9781  153.6862 N.ar    1  UNL1       -0.1635
     20 O         139.3962  139.4330  159.9201 O.3     1  UNL1       -0.4629
     21 C         138.1264  140.6061  164.7976 C.3     1  UNL1        0.0161
     22 C         138.5013  140.2404  163.7013 C.3     1  UNL1        0.0491
     23 C         137.5293  141.3615  163.4810 C.3     1  UNL1        0.0161
     24 C         138.5164  140.3076  162.2029 C.3     1  UNL1        0.0583
     25 C         139.3810  139.3657  161.4186 C.3     1  UNL1        0.1702
     26 C         140.2305  138.3565  162.1326 C.3     1  UNL1        0.0583
     27 C         140.2153  138.2892  163.6310 C.3     1  UNL1        0.0491
     28 C         141.1925  137.1915  163.3309 C.3     1  UNL1        0.0161
     29 C         140.5395  137.8407  165.0252 C.3     1  UNL1        0.0161
     30 N         139.3507  139.2312  164.4153 N.3     1  UNL1       -0.2704
     31 C         139.3356  139.1639  165.9138 C.3     1  UNL1        0.1765
     32 C         138.1770  138.5291  166.6243 C.3     1  UNL1        0.4121
     33 F         137.0185  137.8943  167.3349 F       1  UNL1       -0.1685
     34 F         137.8723  137.7494  165.7436 F       1  UNL1       -0.1685
     35 F         138.4138  139.4209  167.8070 F       1  UNL1       -0.1685
@<TRIPOS>BOND
     1    21    22    1
     2    22    23    1
     3    22    24    1
     4    24    25    1
     5    25    20    1
     6    20     1    1
     7     1     2   ar
     8     2     3   ar
     9     3     4   ar
    10     4     7    1
    11     7     8   ar
    12     8     9   ar
    13     9    10   ar
    14    10    15    1
    15    15    16   ar
    16    16    17   ar
    17    17    18   ar
    18    18    19   ar
    19    10    11   ar
    20    11    12   ar
    21    12    13    1
    22     4     5   ar
    23     5     6   ar
    24    25    26    1
    25    26    27    1
    26    27    28    1
    27    27    29    1
    28    27    30    1
    29    30    31    1
    30    31    32    1
    31    32    33    1
    32    32    34    1
    33    32    35    1
    34    30    22    1
    35     6     1   ar
    36    12     7   ar
    37    19    15   ar
    38    13    14    1
@<TRIPOS>MOLECULE
*****
 35 38 0 0 0
SMALL
GASTEIGER

@<TRIPOS>ATOM
      1 C         138.3589  142.8769  162.0483 C.ar    1  UNL1        0.2437
      2 C         138.5670  141.8792  160.9476 C.ar    1  UNL1        0.0608
      3 C         139.2137  142.3042  159.6626 C.ar    1  UNL1        0.0258
      4 C         139.6523  143.7268  159.4784 C.ar    1  UNL1        0.1060
      5 N         139.4442  144.7244  160.5791 N.ar    1  UNL1       -0.1450
      6 N         138.7975  144.2994  161.8640 N.ar    1  UNL1       -0.1103
      7 C         140.2990  144.1518  158.1934 C.ar    1  UNL1        0.0532
      8 C         139.8009  143.6077  156.8873 C.ar    1  UNL1        0.0061
      9 C         140.4476  144.0327  155.6023 C.ar    1  UNL1        0.0194
     10 C         141.5924  145.0018  155.6234 C.ar    1  UNL1        0.0859
     11 C         142.0904  145.5458  156.9295 C.ar    1  UNL1        0.0558
     12 C         141.4437  145.1209  158.2145 C.ar    1  UNL1        0.1366
     13 O         141.9418  145.6650  159.5206 O.3     1  UNL1       -0.5054
     14 H         142.6569  146.2704  159.5338 H       1  UNL1        0.2922
     15 N         142.2391  145.4267  154.3385 N.ar    1  UNL1       -0.2280
     16 C         143.5795  144.9788  153.8357 C.ar    1  UNL1        0.1020
     17 C         143.8278  145.6495  152.5171 C.ar    1  UNL1        0.0431
     18 C         142.6408  146.5119  152.2050 C.ar    1  UNL1        0.1221
     19 N         141.6590  146.3743  153.3306 N.ar    1  UNL1       -0.1635
     20 O         137.7122  142.4519  163.3333 O.3     1  UNL1       -0.4629
     21 C         139.2155  139.1798  167.0498 C.3     1  UNL1        0.0161
     22 C         138.9665  140.0174  166.2056 C.3     1  UNL1        0.0491
     23 C         137.8752  138.9903  166.1397 C.3     1  UNL1        0.0161
     24 C         138.1320  140.5947  165.1010 C.3     1  UNL1        0.0583
     25 C         138.5469  141.8746  164.4379 C.3     1  UNL1        0.1702
     26 C         139.7964  142.5772  164.8795 C.3     1  UNL1        0.0583
     27 C         140.6309  141.9999  165.9841 C.3     1  UNL1        0.0491
     28 C         141.4324  143.2274  165.6664 C.3     1  UNL1        0.0161
     29 C         141.7439  141.8489  166.9783 C.3     1  UNL1        0.0161
     30 N         140.2160  140.7200  166.6471 N.3     1  UNL1       -0.2704
     31 C         141.0507  140.1427  167.7517 C.3     1  UNL1        0.1765
     32 C         140.5980  140.2657  169.1765 C.3     1  UNL1        0.4121
     33 F         140.1454  140.3888  170.6013 F       1  UNL1       -0.1685
     34 F         139.8257  141.1884  169.0074 F       1  UNL1       -0.1685
     35 F         141.5031  139.1333  169.5618 F       1  UNL1       -0.1685
@<TRIPOS>BOND
     1    21    22    1
     2    22    23    1
     3    22    24    1
     4    24    25    1
     5    25    20    1
     6    20     1    1
     7     1     2   ar
     8     2     3   ar
     9     3     4   ar
    10     4     7    1
    11     7     8   ar
    12     8     9   ar
    13     9    10   ar
    14    10    15    1
    15    15    16   ar
    16    16    17   ar
    17    17    18   ar
    18    18    19   ar
    19    10    11   ar
    20    11    12   ar
    21    12    13    1
    22     4     5   ar
    23     5     6   ar
    24    25    26    1
    25    26    27    1
    26    27    28    1
    27    27    29    1
    28    27    30    1
    29    30    31    1
    30    31    32    1
    31    32    33    1
    32    32    34    1
    33    32    35    1
    34    30    22    1
    35     6     1   ar
    36    12     7   ar
    37    19    15   ar
    38    13    14    1
@<TRIPOS>MOLECULE
*****
 35 38 0 0 0
SMALL
GASTEIGER

@<TRIPOS>ATOM
      1 C         141.3617  139.0165  158.4545 C.ar    1  UNL1        0.2437
      2 C         140.3761  138.3685  157.5278 C.ar    1  UNL1        0.0608
      3 C         140.7483  137.1133  156.7957 C.ar    1  UNL1        0.0258
      4 C         142.1061  136.5061  156.9902 C.ar    1  UNL1        0.1060
      5 N         143.0916  137.1541  157.9169 N.ar    1  UNL1       -0.1450
      6 N         142.7195  138.4093  158.6490 N.ar    1  UNL1       -0.1103
      7 C         142.4782  135.2509  156.2581 C.ar    1  UNL1        0.0532
      8 C         142.1776  135.1193  154.7944 C.ar    1  UNL1        0.0061
      9 C         142.5498  133.8641  154.0623 C.ar    1  UNL1        0.0194
     10 C         143.2225  132.7405  154.7939 C.ar    1  UNL1        0.0859
     11 C         143.5231  132.8722  156.2575 C.ar    1  UNL1        0.0558
     12 C         143.1509  134.1274  156.9896 C.ar    1  UNL1        0.1366
     13 O         143.4515  134.2591  158.4534 O.3     1  UNL1       -0.5054
     14 H         143.8718  133.5573  158.9103 H       1  UNL1        0.2922
     15 N         143.5947  131.4853  154.0618 N.ar    1  UNL1       -0.2280
     16 C         143.2507  131.1599  152.6385 C.ar    1  UNL1        0.1020
     17 C         143.8196  129.8086  152.3215 C.ar    1  UNL1        0.0431
     18 C         144.5152  129.2989  153.5488 C.ar    1  UNL1        0.1221
     19 N         144.3762  130.3352  154.6244 N.ar    1  UNL1       -0.1635
     20 O         140.9896  140.2717  159.1866 O.3     1  UNL1       -0.4629
     21 C         139.2785  138.3648  163.6827 C.3     1  UNL1        0.0161
     22 C         139.6048  138.9137  162.6490 C.3     1  UNL1        0.0491
     23 C         140.3530  137.6151  162.7111 C.3     1  UNL1        0.0161
     24 C         140.3748  138.9952  161.3644 C.3     1  UNL1        0.0583
     25 C         140.2195  140.1903  160.4713 C.3     1  UNL1        0.1702
     26 C         139.2942  141.3040  160.8629 C.3     1  UNL1        0.0583
     27 C         138.5241  141.2226  162.1476 C.3     1  UNL1        0.0491
     28 C         138.0434  142.5494  161.6394 C.3     1  UNL1        0.0161
     29 C         137.5872  141.6019  163.2558 C.3     1  UNL1        0.0161
     30 N         138.6795  140.0274  163.0406 N.3     1  UNL1       -0.2704
     31 C         137.9094  139.9460  164.3254 C.3     1  UNL1        0.1765
     32 C         138.6089  140.1643  165.6342 C.3     1  UNL1        0.4121
     33 F         139.3085  140.3826  166.9430 F       1  UNL1       -0.1685
     34 F         139.4802  140.9004  165.2154 F       1  UNL1       -0.1685
     35 F         137.6111  139.2756  166.3157 F       1  UNL1       -0.1685
@<TRIPOS>BOND
     1    21    22    1
     2    22    23    1
     3    22    24    1
     4    24    25    1
     5    25    20    1
     6    20     1    1
     7     1     2   ar
     8     2     3   ar
     9     3     4   ar
    10     4     7    1
    11     7     8   ar
    12     8     9   ar
    13     9    10   ar
    14    10    15    1
    15    15    16   ar
    16    16    17   ar
    17    17    18   ar
    18    18    19   ar
    19    10    11   ar
    20    11    12   ar
    21    12    13    1
    22     4     5   ar
    23     5     6   ar
    24    25    26    1
    25    26    27    1
    26    27    28    1
    27    27    29    1
    28    27    30    1
    29    30    31    1
    30    31    32    1
    31    32    33    1
    32    32    34    1
    33    32    35    1
    34    30    22    1
    35     6     1   ar
    36    12     7   ar
    37    19    15   ar
    38    13    14    1
@<TRIPOS>MOLECULE
*****
 35 38 0 0 0
SMALL
GASTEIGER

@<TRIPOS>ATOM
      1 C         141.7234  138.3542  161.6529 C.ar    1  UNL1        0.2437
      2 C         141.1857  139.6359  161.0888 C.ar    1  UNL1        0.0608
      3 C         141.9257  140.3408  159.9908 C.ar    1  UNL1        0.0258
      4 C         143.2033  139.7639  159.4569 C.ar    1  UNL1        0.1060
      5 N         143.7409  138.4822  160.0210 N.ar    1  UNL1       -0.1450
      6 N         143.0009  137.7773  161.1190 N.ar    1  UNL1       -0.1103
      7 C         143.9433  140.4687  158.3589 C.ar    1  UNL1        0.0532
      8 C         144.4522  141.8635  158.5726 C.ar    1  UNL1        0.0061
      9 C         145.1922  142.5684  157.4746 C.ar    1  UNL1        0.0194
     10 C         145.4232  141.8784  156.1629 C.ar    1  UNL1        0.0859
     11 C         144.9143  140.4837  155.9492 C.ar    1  UNL1        0.0558
     12 C         144.1744  139.7788  157.0472 C.ar    1  UNL1        0.1366
     13 O         143.6655  138.3840  156.8334 O.3     1  UNL1       -0.5054
     14 H         143.8098  137.9531  156.0140 H       1  UNL1        0.2922
     15 N         146.1632  142.5833  155.0648 N.ar    1  UNL1       -0.2280
     16 C         147.6205  142.4303  154.7443 C.ar    1  UNL1        0.1020
     17 C         147.9338  143.3173  153.5759 C.ar    1  UNL1        0.0431
     18 C         146.6700  144.0185  153.1744 C.ar    1  UNL1        0.1221
     19 N         145.5758  143.5648  154.0946 N.ar    1  UNL1       -0.1635
     20 O         140.9834  137.6493  162.7509 O.3     1  UNL1       -0.4629
     21 C         138.9836  139.7731  167.0252 C.3     1  UNL1        0.0161
     22 C         139.5674  139.2829  166.0790 C.3     1  UNL1        0.0491
     23 C         138.1124  139.3342  165.7180 C.3     1  UNL1        0.0161
     24 C         139.6189  138.6841  164.7048 C.3     1  UNL1        0.0583
     25 C         140.9320  138.2482  164.1253 C.3     1  UNL1        0.1702
     26 C         142.1936  138.4111  164.9201 C.3     1  UNL1        0.0583
     27 C         142.1421  139.0099  166.2944 C.3     1  UNL1        0.0491
     28 C         143.6150  138.7508  166.1782 C.3     1  UNL1        0.0161
     29 C         142.6022  139.5188  167.6283 C.3     1  UNL1        0.0161
     30 N         140.8291  139.4459  166.8738 N.3     1  UNL1       -0.2704
     31 C         140.7776  140.0447  168.2482 C.3     1  UNL1        0.1765
     32 C         140.4824  141.5054  168.4192 C.3     1  UNL1        0.4121
     33 F         140.1871  142.9661  168.5903 F       1  UNL1       -0.1685
     34 F         141.0511  141.8899  167.4167 F       1  UNL1       -0.1685
     35 F         139.7387  141.2066  169.6872 F       1  UNL1       -0.1685
@<TRIPOS>BOND
     1    21    22    1
     2    22    23    1
     3    22    24    1
     4    24    25    1
     5    25    20    1
     6    20     1    1
     7     1     2   ar
     8     2     3   ar
     9     3     4   ar
    10     4     7    1
    11     7     8   ar
    12     8     9   ar
    13     9    10   ar
    14    10    15    1
    15    15    16   ar
    16    16    17   ar
    17    17    18   ar
    18    18    19   ar
    19    10    11   ar
    20    11    12   ar
    21    12    13    1
    22     4     5   ar
    23     5     6   ar
    24    25    26    1
    25    26    27    1
    26    27    28    1
    27    27    29    1
    28    27    30    1
    29    30    31    1
    30    31    32    1
    31    32    33    1
    32    32    34    1
    33    32    35    1
    34    30    22    1
    35     6     1   ar
    36    12     7   ar
    37    19    15   ar
    38    13    14    1
