@<TRIPOS>MOLECULE
*****
 33 37 0 0 0
SMALL
GASTEIGER

@<TRIPOS>ATOM
      1 N         142.8191  142.9209  161.4891 N.3     1  UNL1       -0.2726
      2 C         144.1884  142.9677  160.8785 C.3     1  UNL1        0.0721
      3 C         145.1631  142.4320  161.8849 C.3     1  UNL1        0.0190
      4 C         144.3962  142.0541  163.1174 C.3     1  UNL1        0.0201
      5 C         145.5832  141.5765  163.9004 C.3     1  UNL1        0.0061
      6 C         144.2138  141.5297  164.5109 C.3     1  UNL1        0.0237
      7 C         142.9475  142.3563  162.8728 C.3     1  UNL1        0.0724
      8 C         143.3180  141.2000  165.6679 C.ar    1  UNL1       -0.0225
      9 C         142.6095  139.8786  165.7151 C.ar    1  UNL1       -0.0043
     10 C         141.7137  139.5489  166.8721 C.ar    1  UNL1        0.0035
     11 C         141.5262  140.5405  167.9819 C.ar    1  UNL1        0.0714
     12 C         142.2347  141.8618  167.9347 C.ar    1  UNL1        0.0035
     13 C         143.1306  142.1915  166.7777 C.ar    1  UNL1       -0.0043
     14 C         140.6304  140.2107  169.1389 C.3     1  UNL1        0.4186
     15 F         139.7344  139.8810  170.2960 F       1  UNL1       -0.1659
     16 F         141.6221  139.1917  169.6164 F       1  UNL1       -0.1659
     17 F         139.6387  141.2298  168.6614 F       1  UNL1       -0.1659
     18 C         141.5449  143.3615  160.8314 C.3     1  UNL1        0.0730
     19 C         141.1321  144.8025  160.8858 C.3     1  UNL1        0.0294
     20 C         140.6165  145.3871  162.1674 C.3     1  UNL1        0.0666
     21 S         139.2086  145.1109  162.6049 S.3     1  UNL1       -0.0756
     22 C         140.0413  142.8622  164.8183 C.3     1  UNL1        0.1340
     23 N         139.0866  142.6659  163.6781 N.ar    1  UNL1       -0.2872
     24 C         138.7039  143.6995  162.6607 C.ar    1  UNL1        0.1933
     25 N         137.7278  143.0739  161.7089 N.ar    1  UNL1       -0.1221
     26 N         137.5073  141.6536  162.1380 N.ar    1  UNL1       -0.1267
     27 C         138.3471  141.4014  163.3551 C.ar    1  UNL1        0.1847
     28 C         138.4324  140.1113  164.1156 C.ar    1  UNL1        0.1204
     29 C         138.0547  140.0696  165.5666 C.ar    1  UNL1        0.0430
     30 C         138.1399  138.7795  166.3271 C.ar    1  UNL1        0.1023
     31 N         138.6029  137.5310  165.6364 N.ar    1  UNL1       -0.2224
     32 C         138.9806  137.5726  164.1853 C.ar    1  UNL1        0.1990
     33 N         138.8953  138.8628  163.4249 N.ar    1  UNL1       -0.2208
@<TRIPOS>BOND
     1    22    23    1
     2    23    24   ar
     3    24    21    1
     4    21    20    1
     5    20    19    1
     6    19    18    1
     7    18     1    1
     8     1     2    1
     9     2     3    1
    10     4     3    1
    11     4     5    1
    12     5     6    1
    13     6     8    1
    14     8     9   ar
    15     9    10   ar
    16    10    11   ar
    17    11    14    1
    18    14    15    1
    19    14    16    1
    20    14    17    1
    21    11    12   ar
    22    12    13   ar
    23     4     7    1
    24    24    25   ar
    25    25    26   ar
    26    26    27   ar
    27    27    28    1
    28    28    29   ar
    29    29    30   ar
    30    30    31   ar
    31    31    32   ar
    32    32    33   ar
    33    27    23   ar
    34    33    28   ar
    35     7     1    1
    36     6     4    1
    37    13     8   ar
@<TRIPOS>MOLECULE
*****
 33 37 0 0 0
SMALL
GASTEIGER

@<TRIPOS>ATOM
      1 N         144.4097  141.7954  163.3813 N.3     1  UNL1       -0.2726
      2 C         144.9674  140.5224  162.8170 C.3     1  UNL1        0.0721
      3 C         144.5564  139.3965  163.7189 C.3     1  UNL1        0.0190
      4 C         143.7447  139.9736  164.8405 C.3     1  UNL1        0.0201
      5 C         143.4925  138.6700  165.5384 C.3     1  UNL1        0.0061
      6 C         142.9348  139.9430  166.1027 C.3     1  UNL1        0.0237
      7 C         143.6540  141.4562  164.6319 C.3     1  UNL1        0.0724
      8 C         142.1451  140.6603  167.1572 C.ar    1  UNL1       -0.0225
      9 C         140.8593  140.0740  167.6600 C.ar    1  UNL1       -0.0043
     10 C         140.0696  140.7913  168.7145 C.ar    1  UNL1        0.0035
     11 C         140.5659  142.0949  169.2661 C.ar    1  UNL1        0.0714
     12 C         141.8518  142.6812  168.7633 C.ar    1  UNL1        0.0035
     13 C         142.6414  141.9639  167.7088 C.ar    1  UNL1       -0.0043
     14 C         139.7763  142.8122  170.3206 C.3     1  UNL1        0.4186
     15 F         138.9866  143.5295  171.3752 F       1  UNL1       -0.1659
     16 F         140.7145  143.9790  170.2294 F       1  UNL1       -0.1659
     17 F         138.8381  141.6454  170.4118 F       1  UNL1       -0.1659
     18 C         144.5780  143.1668  162.7975 C.3     1  UNL1        0.0730
     19 C         143.9805  144.3554  163.4904 C.3     1  UNL1        0.0294
     20 C         142.7929  145.0521  162.8951 C.3     1  UNL1        0.0666
     21 S         141.5139  145.1509  163.6723 S.3     1  UNL1       -0.0756
     22 C         141.0238  142.5301  161.7907 C.3     1  UNL1        0.1340
     23 N         140.5547  142.7001  163.2053 N.ar    1  UNL1       -0.2872
     24 C         140.7800  143.9047  164.0702 C.ar    1  UNL1        0.1933
     25 N         140.1424  143.6445  165.4028 N.ar    1  UNL1       -0.1221
     26 N         139.5232  142.2789  165.3615 N.ar    1  UNL1       -0.1267
     27 C         139.7779  141.6951  164.0034 C.ar    1  UNL1        0.1847
     28 C         139.3339  140.3439  163.5271 C.ar    1  UNL1        0.1204
     29 C         139.9145  139.1043  164.1405 C.ar    1  UNL1        0.0430
     30 C         139.4705  137.7530  163.6641 C.ar    1  UNL1        0.1023
     31 N         138.4458  137.6414  162.5743 N.ar    1  UNL1       -0.2224
     32 C         137.8651  138.8810  161.9610 C.ar    1  UNL1        0.1990
     33 N         138.3092  140.2323  162.4374 N.ar    1  UNL1       -0.2208
@<TRIPOS>BOND
     1    22    23    1
     2    23    24   ar
     3    24    21    1
     4    21    20    1
     5    20    19    1
     6    19    18    1
     7    18     1    1
     8     1     2    1
     9     2     3    1
    10     4     3    1
    11     4     5    1
    12     5     6    1
    13     6     8    1
    14     8     9   ar
    15     9    10   ar
    16    10    11   ar
    17    11    14    1
    18    14    15    1
    19    14    16    1
    20    14    17    1
    21    11    12   ar
    22    12    13   ar
    23     4     7    1
    24    24    25   ar
    25    25    26   ar
    26    26    27   ar
    27    27    28    1
    28    28    29   ar
    29    29    30   ar
    30    30    31   ar
    31    31    32   ar
    32    32    33   ar
    33    27    23   ar
    34    33    28   ar
    35     7     1    1
    36     6     4    1
    37    13     8   ar
@<TRIPOS>MOLECULE
*****
 33 37 0 0 0
SMALL
GASTEIGER

@<TRIPOS>ATOM
      1 N         143.1688  143.8137  163.6071 N.3     1  UNL1       -0.2726
      2 C         142.8909  145.2709  163.3852 C.3     1  UNL1        0.0721
      3 C         141.4709  145.5385  163.7874 C.3     1  UNL1        0.0190
      4 C         140.8711  144.2466  164.2579 C.3     1  UNL1        0.0201
      5 C         139.5172  144.8088  164.5757 C.3     1  UNL1        0.0061
      6 C         139.7951  143.3516  164.7976 C.3     1  UNL1        0.0237
      7 C         141.9205  143.1806  164.1464 C.3     1  UNL1        0.0724
      8 C         139.3343  141.9935  165.2372 C.ar    1  UNL1       -0.0225
      9 C         138.3464  141.2309  164.4050 C.ar    1  UNL1       -0.0043
     10 C         137.8857  139.8728  164.8446 C.ar    1  UNL1        0.0035
     11 C         138.4128  139.2773  166.1165 C.ar    1  UNL1        0.0714
     12 C         139.4007  140.0400  166.9487 C.ar    1  UNL1        0.0035
     13 C         139.8614  141.3980  166.5090 C.ar    1  UNL1       -0.0043
     14 C         137.9520  137.9193  166.5561 C.3     1  UNL1        0.4186
     15 F         137.4912  136.5611  166.9958 F       1  UNL1       -0.1659
     16 F         137.0508  138.5543  167.5732 F       1  UNL1       -0.1659
     17 F         138.8533  137.2842  165.5391 F       1  UNL1       -0.1659
     18 C         144.4671  143.1126  163.3370 C.3     1  UNL1        0.0730
     19 C         145.0476  142.1870  164.3648 C.3     1  UNL1        0.0294
     20 C         145.6671  140.8885  163.9403 C.3     1  UNL1        0.0666
     21 S         144.9308  139.5999  164.1576 S.3     1  UNL1       -0.0756
     22 C         143.8069  139.9785  161.1174 C.3     1  UNL1        0.1340
     23 N         142.9841  139.6449  162.3264 N.ar    1  UNL1       -0.2872
     24 C         143.5007  139.4709  163.7238 C.ar    1  UNL1        0.1933
     25 N         142.3362  139.1452  164.6114 N.ar    1  UNL1       -0.1221
     26 N         141.0998  139.1180  163.7625 N.ar    1  UNL1       -0.1267
     27 C         141.5002  139.4268  162.3502 C.ar    1  UNL1        0.1847
     28 C         140.5786  139.5040  161.1693 C.ar    1  UNL1        0.1204
     29 C         140.6699  138.4785  160.0783 C.ar    1  UNL1        0.0430
     30 C         139.7483  138.5557  158.8974 C.ar    1  UNL1        0.1023
     31 N         138.7353  139.6584  158.8075 N.ar    1  UNL1       -0.2224
     32 C         138.6439  140.6838  159.8984 C.ar    1  UNL1        0.1990
     33 N         139.5656  140.6066  161.0793 N.ar    1  UNL1       -0.2208
@<TRIPOS>BOND
     1    22    23    1
     2    23    24   ar
     3    24    21    1
     4    21    20    1
     5    20    19    1
     6    19    18    1
     7    18     1    1
     8     1     2    1
     9     2     3    1
    10     4     3    1
    11     4     5    1
    12     5     6    1
    13     6     8    1
    14     8     9   ar
    15     9    10   ar
    16    10    11   ar
    17    11    14    1
    18    14    15    1
    19    14    16    1
    20    14    17    1
    21    11    12   ar
    22    12    13   ar
    23     4     7    1
    24    24    25   ar
    25    25    26   ar
    26    26    27   ar
    27    27    28    1
    28    28    29   ar
    29    29    30   ar
    30    30    31   ar
    31    31    32   ar
    32    32    33   ar
    33    27    23   ar
    34    33    28   ar
    35     7     1    1
    36     6     4    1
    37    13     8   ar
@<TRIPOS>MOLECULE
*****
 33 37 0 0 0
SMALL
GASTEIGER

@<TRIPOS>ATOM
      1 N         142.7747  138.7086  163.7923 N.3     1  UNL1       -0.2726
      2 C         143.9241  139.0025  162.8745 C.3     1  UNL1        0.0721
      3 C         144.5281  140.3104  163.2924 C.3     1  UNL1        0.0190
      4 C         143.7520  140.8247  164.4684 C.3     1  UNL1        0.0201
      5 C         144.5533  142.0799  164.6483 C.3     1  UNL1        0.0061
      6 C         143.4039  141.7860  165.5661 C.3     1  UNL1        0.0237
      7 C         142.6683  139.8348  164.7774 C.3     1  UNL1        0.0724
      8 C         142.5393  142.1712  166.7297 C.ar    1  UNL1       -0.0225
      9 C         143.1119  142.1895  168.1160 C.ar    1  UNL1       -0.0043
     10 C         142.2473  142.5747  169.2796 C.ar    1  UNL1        0.0035
     11 C         140.8101  142.9417  169.0569 C.ar    1  UNL1        0.0714
     12 C         140.2374  142.9234  167.6706 C.ar    1  UNL1        0.0035
     13 C         141.1020  142.5382  166.5070 C.ar    1  UNL1       -0.0043
     14 C         139.9455  143.3269  170.2205 C.3     1  UNL1        0.4186
     15 F         139.0808  143.7122  171.3842 F       1  UNL1       -0.1659
     16 F         139.4561  141.9129  170.3251 F       1  UNL1       -0.1659
     17 F         140.4348  144.7410  170.1160 F       1  UNL1       -0.1659
     18 C         141.8873  137.5005  163.7351 C.3     1  UNL1        0.0730
     19 C         140.8260  137.3988  162.6800 C.3     1  UNL1        0.0294
     20 C         139.3933  137.6747  163.0282 C.3     1  UNL1        0.0666
     21 S         138.5573  138.5407  162.1331 S.3     1  UNL1       -0.0756
     22 C         140.7661  140.8751  161.5663 C.3     1  UNL1        0.1340
     23 N         139.4112  141.0733  162.1787 N.ar    1  UNL1       -0.2872
     24 C         138.3960  140.0003  162.4392 C.ar    1  UNL1        0.1933
     25 N         137.1910  140.6430  163.0596 N.ar    1  UNL1       -0.1221
     26 N         137.4615  142.1133  163.1825 N.ar    1  UNL1       -0.1267
     27 C         138.8337  142.3793  162.6381 C.ar    1  UNL1        0.1847
     28 C         139.5097  143.7164  162.5657 C.ar    1  UNL1        0.1204
     29 C         140.7929  143.9491  163.3069 C.ar    1  UNL1        0.0430
     30 C         141.4688  145.2862  163.2345 C.ar    1  UNL1        0.1023
     31 N         140.8615  146.3906  162.4210 N.ar    1  UNL1       -0.2224
     32 C         139.5783  146.1578  161.6799 C.ar    1  UNL1        0.1990
     33 N         138.9024  144.8206  161.7523 N.ar    1  UNL1       -0.2208
@<TRIPOS>BOND
     1    22    23    1
     2    23    24   ar
     3    24    21    1
     4    21    20    1
     5    20    19    1
     6    19    18    1
     7    18     1    1
     8     1     2    1
     9     2     3    1
    10     4     3    1
    11     4     5    1
    12     5     6    1
    13     6     8    1
    14     8     9   ar
    15     9    10   ar
    16    10    11   ar
    17    11    14    1
    18    14    15    1
    19    14    16    1
    20    14    17    1
    21    11    12   ar
    22    12    13   ar
    23     4     7    1
    24    24    25   ar
    25    25    26   ar
    26    26    27   ar
    27    27    28    1
    28    28    29   ar
    29    29    30   ar
    30    30    31   ar
    31    31    32   ar
    32    32    33   ar
    33    27    23   ar
    34    33    28   ar
    35     7     1    1
    36     6     4    1
    37    13     8   ar
@<TRIPOS>MOLECULE
*****
 33 37 0 0 0
SMALL
GASTEIGER

@<TRIPOS>ATOM
      1 N         143.5725  143.5465  163.7428 N.3     1  UNL1       -0.2726
      2 C         143.3891  145.0086  163.4623 C.3     1  UNL1        0.0721
      3 C         141.9722  145.3704  163.7962 C.3     1  UNL1        0.0190
      4 C         141.2799  144.1320  164.2830 C.3     1  UNL1        0.0201
      5 C         139.9496  144.7811  164.5257 C.3     1  UNL1        0.0061
      6 C         140.1330  143.3190  164.8062 C.3     1  UNL1        0.0237
      7 C         142.2689  143.0047  164.2500 C.3     1  UNL1        0.0724
      8 C         139.5767  142.0056  165.2701 C.ar    1  UNL1       -0.0225
      9 C         138.5742  141.2755  164.4263 C.ar    1  UNL1       -0.0043
     10 C         138.0179  139.9620  164.8902 C.ar    1  UNL1        0.0035
     11 C         138.4641  139.3786  166.1981 C.ar    1  UNL1        0.0714
     12 C         139.4666  140.1087  167.0420 C.ar    1  UNL1        0.0035
     13 C         140.0229  141.4221  166.5780 C.ar    1  UNL1       -0.0043
     14 C         137.9079  138.0651  166.6621 C.3     1  UNL1        0.4186
     15 F         137.3516  136.7516  167.1261 F       1  UNL1       -0.1659
     16 F         137.3514  138.7327  167.8847 F       1  UNL1       -0.1659
     17 F         138.4643  137.3976  165.4395 F       1  UNL1       -0.1659
     18 C         144.8374  142.7636  163.5500 C.3     1  UNL1        0.0730
     19 C         145.0483  141.9779  162.2898 C.3     1  UNL1        0.0294
     20 C         145.2112  142.6905  160.9799 C.3     1  UNL1        0.0666
     21 S         144.1292  142.6126  159.9441 S.3     1  UNL1       -0.0756
     22 C         142.7244  139.6871  160.2870 C.3     1  UNL1        0.1340
     23 N         142.0646  141.0144  160.5170 N.ar    1  UNL1       -0.2872
     24 C         142.7103  142.3591  160.3594 C.ar    1  UNL1        0.1933
     25 N         141.6880  143.4058  160.6900 N.ar    1  UNL1       -0.1221
     26 N         140.4105  142.7080  161.0520 N.ar    1  UNL1       -0.1267
     27 C         140.6432  141.2300  160.9451 C.ar    1  UNL1        0.1847
     28 C         139.6321  140.1562  161.2182 C.ar    1  UNL1        0.1204
     29 C         138.2132  140.3287  160.7631 C.ar    1  UNL1        0.0430
     30 C         137.2021  139.2550  161.0363 C.ar    1  UNL1        0.1023
     31 N         137.6099  138.0086  161.7646 N.ar    1  UNL1       -0.2224
     32 C         139.0288  137.8361  162.2197 C.ar    1  UNL1        0.1990
     33 N         140.0398  138.9099  161.9465 N.ar    1  UNL1       -0.2208
@<TRIPOS>BOND
     1    22    23    1
     2    23    24   ar
     3    24    21    1
     4    21    20    1
     5    20    19    1
     6    19    18    1
     7    18     1    1
     8     1     2    1
     9     2     3    1
    10     4     3    1
    11     4     5    1
    12     5     6    1
    13     6     8    1
    14     8     9   ar
    15     9    10   ar
    16    10    11   ar
    17    11    14    1
    18    14    15    1
    19    14    16    1
    20    14    17    1
    21    11    12   ar
    22    12    13   ar
    23     4     7    1
    24    24    25   ar
    25    25    26   ar
    26    26    27   ar
    27    27    28    1
    28    28    29   ar
    29    29    30   ar
    30    30    31   ar
    31    31    32   ar
    32    32    33   ar
    33    27    23   ar
    34    33    28   ar
    35     7     1    1
    36     6     4    1
    37    13     8   ar
@<TRIPOS>MOLECULE
*****
 33 37 0 0 0
SMALL
GASTEIGER

@<TRIPOS>ATOM
      1 N         141.1711  138.0955  163.5758 N.3     1  UNL1       -0.2726
      2 C         139.8811  137.4183  163.2191 C.3     1  UNL1        0.0721
      3 C         138.8730  137.7543  164.2778 C.3     1  UNL1        0.0190
      4 C         139.5400  138.6392  165.2888 C.3     1  UNL1        0.0201
      5 C         138.3401  138.7971  166.1749 C.3     1  UNL1        0.0061
      6 C         139.6302  139.4743  166.5316 C.3     1  UNL1        0.0237
      7 C         140.9604  138.8500  164.8549 C.3     1  UNL1        0.0724
      8 C         140.4270  140.3474  167.4551 C.ar    1  UNL1       -0.0225
      9 C         141.1699  139.7390  168.6075 C.ar    1  UNL1       -0.0043
     10 C         141.9667  140.6121  169.5309 C.ar    1  UNL1        0.0035
     11 C         142.0206  142.0936  169.3019 C.ar    1  UNL1        0.0714
     12 C         141.2777  142.7019  168.1495 C.ar    1  UNL1        0.0035
     13 C         140.4809  141.8288  167.2261 C.ar    1  UNL1       -0.0043
     14 C         142.8175  142.9666  170.2253 C.3     1  UNL1        0.4186
     15 F         143.6144  143.8398  171.1488 F       1  UNL1       -0.1659
     16 F         141.6871  143.9516  170.2695 F       1  UNL1       -0.1659
     17 F         143.9479  141.9817  170.1812 F       1  UNL1       -0.1659
     18 C         142.4478  138.0297  162.7911 C.3     1  UNL1        0.0730
     19 C         143.3833  139.2021  162.7812 C.3     1  UNL1        0.0294
     20 C         144.1639  139.5493  164.0142 C.3     1  UNL1        0.0666
     21 S         144.0866  140.9339  164.5858 S.3     1  UNL1       -0.0756
     22 C         141.1983  142.0303  163.5342 C.3     1  UNL1        0.1340
     23 N         142.5387  142.6122  163.1956 N.ar    1  UNL1       -0.2872
     24 C         143.8663  142.1083  163.6789 C.ar    1  UNL1        0.1933
     25 N         144.9350  142.9849  163.0962 N.ar    1  UNL1       -0.1221
     26 N         144.2679  144.0306  162.2528 N.ar    1  UNL1       -0.1267
     27 C         142.7869  143.8003  162.3141 C.ar    1  UNL1        0.1847
     28 C         141.7383  144.6151  161.6166 C.ar    1  UNL1        0.1204
     29 C         140.7851  145.4534  162.4158 C.ar    1  UNL1        0.0430
     30 C         139.7365  146.2681  161.7182 C.ar    1  UNL1        0.1023
     31 N         139.6411  146.2445  160.2214 N.ar    1  UNL1       -0.2224
     32 C         140.5943  145.4062  159.4222 C.ar    1  UNL1        0.1990
     33 N         141.6429  144.5915  160.1198 N.ar    1  UNL1       -0.2208
@<TRIPOS>BOND
     1    22    23    1
     2    23    24   ar
     3    24    21    1
     4    21    20    1
     5    20    19    1
     6    19    18    1
     7    18     1    1
     8     1     2    1
     9     2     3    1
    10     4     3    1
    11     4     5    1
    12     5     6    1
    13     6     8    1
    14     8     9   ar
    15     9    10   ar
    16    10    11   ar
    17    11    14    1
    18    14    15    1
    19    14    16    1
    20    14    17    1
    21    11    12   ar
    22    12    13   ar
    23     4     7    1
    24    24    25   ar
    25    25    26   ar
    26    26    27   ar
    27    27    28    1
    28    28    29   ar
    29    29    30   ar
    30    30    31   ar
    31    31    32   ar
    32    32    33   ar
    33    27    23   ar
    34    33    28   ar
    35     7     1    1
    36     6     4    1
    37    13     8   ar
@<TRIPOS>MOLECULE
*****
 33 37 0 0 0
SMALL
GASTEIGER

@<TRIPOS>ATOM
      1 N         138.7765  143.2092  163.8605 N.3     1  UNL1       -0.2726
      2 C         137.7635  142.5972  162.9389 C.3     1  UNL1        0.0721
      3 C         137.5829  141.1621  163.3362 C.3     1  UNL1        0.0190
      4 C         138.4843  140.8871  164.5032 C.3     1  UNL1        0.0201
      5 C         138.0984  139.4465  164.6634 C.3     1  UNL1        0.0061
      6 C         139.1114  140.0585  165.5849 C.3     1  UNL1        0.0237
      7 C         139.2220  142.1523  164.8272 C.3     1  UNL1        0.0724
      8 C         140.0583  139.9335  166.7415 C.ar    1  UNL1       -0.0225
      9 C         139.5567  140.1102  168.1440 C.ar    1  UNL1       -0.0043
     10 C         140.5036  139.9851  169.3006 C.ar    1  UNL1        0.0035
     11 C         141.9522  139.6834  169.0546 C.ar    1  UNL1        0.0714
     12 C         142.4539  139.5067  167.6520 C.ar    1  UNL1        0.0035
     13 C         141.5069  139.6318  166.4955 C.ar    1  UNL1       -0.0043
     14 C         142.8992  139.5584  170.2111 C.3     1  UNL1        0.4186
     15 F         143.8462  139.4333  171.3677 F       1  UNL1       -0.1659
     16 F         143.2043  141.0241  170.1197 F       1  UNL1       -0.1659
     17 F         142.5940  138.0926  170.3025 F       1  UNL1       -0.1659
     18 C         139.2594  144.6288  163.8220 C.3     1  UNL1        0.0730
     19 C         138.8623  145.5256  162.6870 C.3     1  UNL1        0.0294
     20 C         139.9164  146.1783  161.8426 C.3     1  UNL1        0.0666
     21 S         140.6638  145.3734  160.8212 S.3     1  UNL1       -0.0756
     22 C         140.2700  142.1464  160.5368 C.3     1  UNL1        0.1340
     23 N         141.4596  142.8405  161.1311 N.ar    1  UNL1       -0.2872
     24 C         141.6406  144.3238  161.2618 C.ar    1  UNL1        0.1933
     25 N         142.9699  144.5732  161.9105 N.ar    1  UNL1       -0.1221
     26 N         143.6104  143.2440  162.1807 N.ar    1  UNL1       -0.1267
     27 C         142.6770  142.1731  161.6990 C.ar    1  UNL1        0.1847
     28 C         142.9187  140.6945  161.7724 C.ar    1  UNL1        0.1204
     29 C         142.2120  139.8694  162.8067 C.ar    1  UNL1        0.0430
     30 C         142.4536  138.3908  162.8801 C.ar    1  UNL1        0.1023
     31 N         143.4020  137.7373  161.9189 N.ar    1  UNL1       -0.2224
     32 C         144.1086  138.5624  160.8846 C.ar    1  UNL1        0.1990
     33 N         143.8669  140.0410  160.8113 N.ar    1  UNL1       -0.2208
@<TRIPOS>BOND
     1    22    23    1
     2    23    24   ar
     3    24    21    1
     4    21    20    1
     5    20    19    1
     6    19    18    1
     7    18     1    1
     8     1     2    1
     9     2     3    1
    10     4     3    1
    11     4     5    1
    12     5     6    1
    13     6     8    1
    14     8     9   ar
    15     9    10   ar
    16    10    11   ar
    17    11    14    1
    18    14    15    1
    19    14    16    1
    20    14    17    1
    21    11    12   ar
    22    12    13   ar
    23     4     7    1
    24    24    25   ar
    25    25    26   ar
    26    26    27   ar
    27    27    28    1
    28    28    29   ar
    29    29    30   ar
    30    30    31   ar
    31    31    32   ar
    32    32    33   ar
    33    27    23   ar
    34    33    28   ar
    35     7     1    1
    36     6     4    1
    37    13     8   ar
@<TRIPOS>MOLECULE
*****
 33 37 0 0 0
SMALL
GASTEIGER

@<TRIPOS>ATOM
      1 N         141.8544  138.1933  163.1556 N.3     1  UNL1       -0.2726
      2 C         143.1265  138.1795  162.3610 C.3     1  UNL1        0.0721
      3 C         144.0735  139.1613  162.9849 C.3     1  UNL1        0.0190
      4 C         143.3866  139.7820  164.1651 C.3     1  UNL1        0.0201
      5 C         144.5270  140.6730  164.5595 C.3     1  UNL1        0.0061
      6 C         143.2548  140.6869  165.3542 C.3     1  UNL1        0.0237
      7 C         142.0151  139.1837  164.2707 C.3     1  UNL1        0.0724
      8 C         142.4443  141.2172  166.4995 C.ar    1  UNL1       -0.0225
      9 C         141.4715  142.3367  166.2749 C.ar    1  UNL1       -0.0043
     10 C         140.6609  142.8671  167.4202 C.ar    1  UNL1        0.0035
     11 C         140.8233  142.2780  168.7901 C.ar    1  UNL1        0.0714
     12 C         141.7961  141.1586  169.0147 C.ar    1  UNL1        0.0035
     13 C         142.6067  140.6282  167.8694 C.ar    1  UNL1       -0.0043
     14 C         140.0128  142.8084  169.9354 C.3     1  UNL1        0.4186
     15 F         139.2022  143.3389  171.0807 F       1  UNL1       -0.1659
     16 F         139.3588  141.4678  170.0934 F       1  UNL1       -0.1659
     17 F         140.6667  144.1490  169.7773 F       1  UNL1       -0.1659
     18 C         140.6355  137.3626  162.8831 C.3     1  UNL1        0.0730
     19 C         139.2804  137.8650  163.2847 C.3     1  UNL1        0.0294
     20 C         138.2193  138.0734  162.2450 C.3     1  UNL1        0.0666
     21 S         138.1337  139.3793  161.5121 S.3     1  UNL1       -0.0756
     22 C         139.1204  141.7587  163.5157 C.3     1  UNL1        0.1340
     23 N         139.8144  141.3182  162.2609 N.ar    1  UNL1       -0.2872
     24 C         139.3609  140.2245  161.3400 C.ar    1  UNL1        0.1933
     25 N         140.3500  140.1244  160.2167 N.ar    1  UNL1       -0.1221
     26 N         141.4148  141.1562  160.4434 N.ar    1  UNL1       -0.1267
     27 C         141.0839  141.8941  161.7068 C.ar    1  UNL1        0.1847
     28 C         141.8822  143.0116  162.3102 C.ar    1  UNL1        0.1204
     29 C         143.3795  142.9966  162.2215 C.ar    1  UNL1        0.0430
     30 C         144.1778  144.1141  162.8248 C.ar    1  UNL1        0.1023
     31 N         143.4786  145.2465  163.5168 N.ar    1  UNL1       -0.2224
     32 C         141.9814  145.2615  163.6055 C.ar    1  UNL1        0.1990
     33 N         141.1831  144.1440  163.0022 N.ar    1  UNL1       -0.2208
@<TRIPOS>BOND
     1    22    23    1
     2    23    24   ar
     3    24    21    1
     4    21    20    1
     5    20    19    1
     6    19    18    1
     7    18     1    1
     8     1     2    1
     9     2     3    1
    10     4     3    1
    11     4     5    1
    12     5     6    1
    13     6     8    1
    14     8     9   ar
    15     9    10   ar
    16    10    11   ar
    17    11    14    1
    18    14    15    1
    19    14    16    1
    20    14    17    1
    21    11    12   ar
    22    12    13   ar
    23     4     7    1
    24    24    25   ar
    25    25    26   ar
    26    26    27   ar
    27    27    28    1
    28    28    29   ar
    29    29    30   ar
    30    30    31   ar
    31    31    32   ar
    32    32    33   ar
    33    27    23   ar
    34    33    28   ar
    35     7     1    1
    36     6     4    1
    37    13     8   ar
@<TRIPOS>MOLECULE
*****
 33 37 0 0 0
SMALL
GASTEIGER

@<TRIPOS>ATOM
      1 N         138.1135  141.6761  162.8657 N.3     1  UNL1       -0.2726
      2 C         137.6474  143.0514  162.4900 C.3     1  UNL1        0.0721
      3 C         138.0883  144.0000  163.5652 C.3     1  UNL1        0.0190
      4 C         138.8268  143.2108  164.6053 C.3     1  UNL1        0.0201
      5 C         139.1264  144.3753  165.5022 C.3     1  UNL1        0.0061
      6 C         139.5924  142.9999  165.8779 C.3     1  UNL1        0.0237
      7 C         138.8424  141.7746  164.1730 C.3     1  UNL1        0.0724
      8 C         140.3035  142.0840  166.8295 C.ar    1  UNL1       -0.0225
      9 C         141.5826  142.5231  167.4784 C.ar    1  UNL1       -0.0043
     10 C         142.2937  141.6072  168.4300 C.ar    1  UNL1        0.0035
     11 C         141.7257  140.2523  168.7326 C.ar    1  UNL1        0.0714
     12 C         140.4466  139.8133  168.0836 C.ar    1  UNL1        0.0035
     13 C         139.7355  140.7291  167.1321 C.ar    1  UNL1       -0.0043
     14 C         142.4368  139.3365  169.6842 C.3     1  UNL1        0.4186
     15 F         143.1479  138.4205  170.6358 F       1  UNL1       -0.1659
     16 F         141.9290  140.1446  170.8414 F       1  UNL1       -0.1659
     17 F         142.9445  138.5284  168.5270 F       1  UNL1       -0.1659
     18 C         137.8899  140.4223  162.0733 C.3     1  UNL1        0.0730
     19 C         138.2836  139.0929  162.6458 C.3     1  UNL1        0.0294
     20 C         139.0581  138.1164  161.8111 C.3     1  UNL1        0.0666
     21 S         140.5498  138.0334  161.9445 S.3     1  UNL1       -0.0756
     22 C         141.4457  141.1298  161.4353 C.3     1  UNL1        0.1340
     23 N         141.6773  140.3398  162.6892 N.ar    1  UNL1       -0.2872
     24 C         141.2655  138.9166  162.9232 C.ar    1  UNL1        0.1933
     25 N         141.6950  138.5314  164.3079 N.ar    1  UNL1       -0.1221
     26 N         142.3723  139.7167  164.9296 N.ar    1  UNL1       -0.1267
     27 C         142.3614  140.8344  163.9292 C.ar    1  UNL1        0.1847
     28 C         142.9339  142.2057  164.1330 C.ar    1  UNL1        0.1204
     29 C         144.1462  142.3916  164.9967 C.ar    1  UNL1        0.0430
     30 C         144.7187  143.7630  165.2005 C.ar    1  UNL1        0.1023
     31 N         144.0789  144.9485  164.5406 N.ar    1  UNL1       -0.2224
     32 C         142.8667  144.7626  163.6769 C.ar    1  UNL1        0.1990
     33 N         142.2942  143.3911  163.4731 N.ar    1  UNL1       -0.2208
@<TRIPOS>BOND
     1    22    23    1
     2    23    24   ar
     3    24    21    1
     4    21    20    1
     5    20    19    1
     6    19    18    1
     7    18     1    1
     8     1     2    1
     9     2     3    1
    10     4     3    1
    11     4     5    1
    12     5     6    1
    13     6     8    1
    14     8     9   ar
    15     9    10   ar
    16    10    11   ar
    17    11    14    1
    18    14    15    1
    19    14    16    1
    20    14    17    1
    21    11    12   ar
    22    12    13   ar
    23     4     7    1
    24    24    25   ar
    25    25    26   ar
    26    26    27   ar
    27    27    28    1
    28    28    29   ar
    29    29    30   ar
    30    30    31   ar
    31    31    32   ar
    32    32    33   ar
    33    27    23   ar
    34    33    28   ar
    35     7     1    1
    36     6     4    1
    37    13     8   ar
