@<TRIPOS>MOLECULE
*****
 31 35 0 0 0
SMALL
GASTEIGER

@<TRIPOS>ATOM
      1 C         140.7444  139.4219  163.1234 C.2     1  UNL1        0.0824
      2 C         139.8763  138.3151  162.6026 C.2     1  UNL1        0.0149
      3 C         138.9482  137.5898  163.5312 C.2     1  UNL1        0.0047
      4 C         138.8881  137.9713  164.9807 C.2     1  UNL1        0.0469
      5 C         139.7562  139.0781  165.5015 C.2     1  UNL1        0.2253
      6 N         139.9131  139.6712  166.8703 N.2     1  UNL1       -0.0344
      7 C         140.9383  140.7631  166.7876 C.2     1  UNL1        0.3710
      8 N         141.4150  140.8448  165.3677 N.2     1  UNL1       -0.0497
      9 C         140.6844  139.8034  164.5729 C.3     1  UNL1        0.3146
     10 C         141.4048  141.6224  167.9252 C.ar    1  UNL1        0.0924
     11 C         140.4627  142.6008  168.5615 C.ar    1  UNL1        0.0375
     12 C         140.9292  143.4600  169.6990 C.ar    1  UNL1        0.1426
     13 F         139.9870  144.4386  170.3354 F       1  UNL1       -0.2041
     14 C         142.3380  143.3408  170.2002 C.ar    1  UNL1        0.0593
     15 C         143.2802  142.3624  169.5639 C.ar    1  UNL1        0.1426
     16 F         144.6889  142.2432  170.0652 F       1  UNL1       -0.2041
     17 C         142.8136  141.5032  168.4264 C.ar    1  UNL1        0.0375
     18 C         143.5290  141.5981  160.3376 C.3     1  UNL1        0.0194
     19 C         144.0374  140.4537  161.1634 C.3     1  UNL1        0.0228
     20 C         143.1092  139.7283  162.0920 C.3     1  UNL1        0.0907
     21 N         141.6726  140.1473  162.1948 N.pl3   1  UNL1       -0.3071
     22 C         141.1642  141.2917  161.3690 C.3     1  UNL1        0.0907
     23 C         142.0924  142.0171  160.4404 C.3     1  UNL1        0.0228
     24 C         144.4572  142.3234  159.4090 C.3     1  UNL1        0.0722
     25 C         145.5258  140.1380  153.9243 C.3     1  UNL1        0.0897
     26 N         145.2587  140.6844  155.2955 N.3     1  UNL1       -0.2691
     27 C         146.1394  141.7598  155.8590 C.3     1  UNL1        0.0897
     28 C         145.8723  142.3062  157.2302 C.3     1  UNL1        0.0897
     29 N         144.7244  141.7771  158.0379 N.3     1  UNL1       -0.2703
     30 C         143.8436  140.7016  157.4743 C.3     1  UNL1        0.0897
     31 C         144.1107  140.1552  156.1031 C.3     1  UNL1        0.0897
@<TRIPOS>BOND
     1    25    26    1
     2    26    27    1
     3    27    28    1
     4    28    29    1
     5    29    24    1
     6    24    18    1
     7    18    19    1
     8    19    20    1
     9    20    21    1
    10    21     1    1
    11     1     2    2
    12     2     3    1
    13     3     4    2
    14     4     5    1
    15     5     6    2
    16     6     7    1
    17     7    10    1
    18    10    11   ar
    19    11    12   ar
    20    12    13    1
    21    12    14   ar
    22    14    15   ar
    23    15    16    1
    24    15    17   ar
    25     7     8    2
    26     8     9    1
    27    21    22    1
    28    22    23    1
    29    29    30    1
    30    30    31    1
    31    31    26    1
    32    23    18    1
    33     9     1    1
    34     9     5    1
    35    17    10   ar
@<TRIPOS>MOLECULE
*****
 31 35 0 0 0
SMALL
GASTEIGER

@<TRIPOS>ATOM
      1 C         140.7527  139.4257  163.0962 C.2     1  UNL1        0.0824
      2 C         139.8899  138.3183  162.5679 C.2     1  UNL1        0.0149
      3 C         138.9608  137.5863  163.4903 C.2     1  UNL1        0.0047
      4 C         138.8944  137.9617  164.9410 C.2     1  UNL1        0.0469
      5 C         139.7572  139.0691  165.4694 C.2     1  UNL1        0.2253
      6 N         139.9075  139.6571  166.8411 N.2     1  UNL1       -0.0344
      7 C         140.9295  140.7525  166.7665 C.2     1  UNL1        0.3710
      8 N         141.4109  140.8415  165.3487 N.2     1  UNL1       -0.0497
      9 C         140.6864  139.8011  164.5470 C.3     1  UNL1        0.3146
     10 C         141.3893  141.6086  167.9092 C.ar    1  UNL1        0.0924
     11 C         142.8025  141.5065  168.4016 C.ar    1  UNL1        0.0375
     12 C         143.2622  142.3626  169.5442 C.ar    1  UNL1        0.1426
     13 F         144.6755  142.2606  170.0366 F       1  UNL1       -0.2041
     14 C         142.3088  143.3208  170.1945 C.ar    1  UNL1        0.0593
     15 C         140.8956  143.4229  169.7021 C.ar    1  UNL1        0.1426
     16 F         139.9422  144.3811  170.3524 F       1  UNL1       -0.2041
     17 C         140.4359  142.5668  168.5595 C.ar    1  UNL1        0.0375
     18 C         143.5402  141.6219  160.3291 C.3     1  UNL1        0.0194
     19 C         142.1359  142.1122  160.5235 C.3     1  UNL1        0.0228
     20 C         141.2068  141.3802  161.4458 C.3     1  UNL1        0.0907
     21 N         141.6819  140.1577  162.1738 N.pl3   1  UNL1       -0.3071
     22 C         143.0861  139.6674  161.9795 C.3     1  UNL1        0.0907
     23 C         144.0153  140.3995  161.0571 C.3     1  UNL1        0.0228
     24 C         144.4693  142.3539  159.4067 C.3     1  UNL1        0.0722
     25 C         145.5126  140.2296  153.8933 C.3     1  UNL1        0.0897
     26 N         145.2518  140.7607  155.2716 N.3     1  UNL1       -0.2691
     27 C         146.1839  141.7688  155.8757 C.3     1  UNL1        0.0897
     28 C         145.9231  142.2999  157.2542 C.3     1  UNL1        0.0897
     29 N         144.7302  141.8229  158.0284 N.3     1  UNL1       -0.2703
     30 C         143.7981  140.8148  157.4242 C.3     1  UNL1        0.0897
     31 C         144.0589  140.2837  156.0459 C.3     1  UNL1        0.0897
@<TRIPOS>BOND
     1    25    26    1
     2    26    27    1
     3    27    28    1
     4    28    29    1
     5    29    24    1
     6    24    18    1
     7    18    19    1
     8    19    20    1
     9    20    21    1
    10    21     1    1
    11     1     2    2
    12     2     3    1
    13     3     4    2
    14     4     5    1
    15     5     6    2
    16     6     7    1
    17     7    10    1
    18    10    11   ar
    19    11    12   ar
    20    12    13    1
    21    12    14   ar
    22    14    15   ar
    23    15    16    1
    24    15    17   ar
    25     7     8    2
    26     8     9    1
    27    21    22    1
    28    22    23    1
    29    29    30    1
    30    30    31    1
    31    31    26    1
    32    23    18    1
    33     9     1    1
    34     9     5    1
    35    17    10   ar
@<TRIPOS>MOLECULE
*****
 31 35 0 0 0
SMALL
GASTEIGER

@<TRIPOS>ATOM
      1 C         140.0238  139.8598  163.1618 C.2     1  UNL1        0.0824
      2 C         139.3380  138.6143  162.6838 C.2     1  UNL1        0.0149
      3 C         138.8617  137.5934  163.6741 C.2     1  UNL1        0.0047
      4 C         139.0712  137.8179  165.1424 C.2     1  UNL1        0.0469
      5 C         139.7570  139.0634  165.6203 C.2     1  UNL1        0.2253
      6 N         140.1014  139.5551  166.9949 N.2     1  UNL1       -0.0344
      7 C         140.7906  140.8799  166.8542 C.2     1  UNL1        0.3710
      8 N         140.8721  141.2071  165.3926 N.2     1  UNL1       -0.0497
      9 C         140.2333  140.0843  164.6300 C.3     1  UNL1        0.3146
     10 C         141.3075  141.7287  167.9779 C.ar    1  UNL1        0.0924
     11 C         142.7176  141.5574  168.4598 C.ar    1  UNL1        0.0375
     12 C         143.2344  142.4061  169.5834 C.ar    1  UNL1        0.1426
     13 F         144.6446  142.2349  170.0653 F       1  UNL1       -0.2041
     14 C         142.3411  143.4260  170.2251 C.ar    1  UNL1        0.0593
     15 C         140.9310  143.5973  169.7432 C.ar    1  UNL1        0.1426
     16 F         140.0378  144.6172  170.3850 F       1  UNL1       -0.2041
     17 C         140.4142  142.7486  168.6196 C.ar    1  UNL1        0.0375
     18 C         141.4529  142.9228  160.1909 C.3     1  UNL1        0.0194
     19 C         142.1917  141.6266  160.3460 C.3     1  UNL1        0.0228
     20 C         141.7153  140.6056  161.3362 C.3     1  UNL1        0.0907
     21 N         140.5002  140.8808  162.1715 N.pl3   1  UNL1       -0.3071
     22 C         139.7614  142.1770  162.0164 C.3     1  UNL1        0.0907
     23 C         140.2377  143.1980  161.0261 C.3     1  UNL1        0.0228
     24 C         141.9293  143.9438  159.2006 C.3     1  UNL1        0.0722
     25 C         138.1918  146.0046  154.9835 C.3     1  UNL1        0.0897
     26 N         139.1262  145.4894  156.0378 N.3     1  UNL1       -0.2691
     27 C         139.1303  144.0310  156.3884 C.3     1  UNL1        0.0897
     28 C         140.0647  143.5158  157.4427 C.3     1  UNL1        0.0897
     29 N         140.9949  144.4590  158.1463 N.3     1  UNL1       -0.2703
     30 C         140.9908  145.9174  157.7956 C.3     1  UNL1        0.0897
     31 C         140.0565  146.4326  156.7413 C.3     1  UNL1        0.0897
@<TRIPOS>BOND
     1    25    26    1
     2    26    27    1
     3    27    28    1
     4    28    29    1
     5    29    24    1
     6    24    18    1
     7    18    19    1
     8    19    20    1
     9    20    21    1
    10    21     1    1
    11     1     2    2
    12     2     3    1
    13     3     4    2
    14     4     5    1
    15     5     6    2
    16     6     7    1
    17     7    10    1
    18    10    11   ar
    19    11    12   ar
    20    12    13    1
    21    12    14   ar
    22    14    15   ar
    23    15    16    1
    24    15    17   ar
    25     7     8    2
    26     8     9    1
    27    21    22    1
    28    22    23    1
    29    29    30    1
    30    30    31    1
    31    31    26    1
    32    23    18    1
    33     9     1    1
    34     9     5    1
    35    17    10   ar
@<TRIPOS>MOLECULE
*****
 31 35 0 0 0
SMALL
GASTEIGER

@<TRIPOS>ATOM
      1 C         139.8500  142.2147  162.7817 C.2     1  UNL1        0.0824
      2 C         138.8572  143.1420  162.1459 C.2     1  UNL1        0.0149
      3 C         138.1620  144.1800  162.9762 C.2     1  UNL1        0.0047
      4 C         138.4596  144.2906  164.4422 C.2     1  UNL1        0.0469
      5 C         139.4524  143.3632  165.0780 C.2     1  UNL1        0.2253
      6 N         139.9462  143.2355  166.4886 N.2     1  UNL1       -0.0344
      7 C         140.9466  142.1185  166.5302 C.2     1  UNL1        0.3710
      8 N         141.0711  141.5560  165.1453 N.2     1  UNL1       -0.0497
      9 C         140.1476  142.3253  164.2477 C.3     1  UNL1        0.3146
     10 C         141.6917  141.6470  167.7437 C.ar    1  UNL1        0.0924
     11 C         142.8484  142.4436  168.2701 C.ar    1  UNL1        0.0375
     12 C         143.5934  141.9720  169.4836 C.ar    1  UNL1        0.1426
     13 F         144.7503  142.7687  170.0101 F       1  UNL1       -0.2041
     14 C         143.1817  140.7038  170.1706 C.ar    1  UNL1        0.0593
     15 C         142.0249  139.9071  169.6442 C.ar    1  UNL1        0.1426
     16 F         141.6131  138.6389  170.3312 F       1  UNL1       -0.2041
     17 C         141.2799  140.3787  168.4307 C.ar    1  UNL1        0.0375
     18 C         141.9357  139.1007  160.2911 C.3     1  UNL1        0.0194
     19 C         140.9202  138.6860  161.3143 C.3     1  UNL1        0.0228
     20 C         140.2250  139.7240  162.1445 C.3     1  UNL1        0.0907
     21 N         140.5453  141.1767  161.9515 N.pl3   1  UNL1       -0.3071
     22 C         141.5607  141.5913  160.9284 C.3     1  UNL1        0.0907
     23 C         142.2560  140.5533  160.0981 C.3     1  UNL1        0.0228
     24 C         142.6309  138.0627  159.4609 C.3     1  UNL1        0.0722
     25 C         140.2573  136.3184  154.2338 C.3     1  UNL1        0.0897
     26 N         140.8507  136.7545  155.5406 N.3     1  UNL1       -0.2691
     27 C         140.0917  137.6904  156.4338 C.3     1  UNL1        0.0897
     28 C         140.6851  138.1265  157.7406 C.3     1  UNL1        0.0897
     29 N         142.0375  137.6266  158.1542 N.3     1  UNL1       -0.2703
     30 C         142.7965  136.6906  157.2609 C.3     1  UNL1        0.0897
     31 C         142.2031  136.2546  155.9541 C.3     1  UNL1        0.0897
@<TRIPOS>BOND
     1    25    26    1
     2    26    27    1
     3    27    28    1
     4    28    29    1
     5    29    24    1
     6    24    18    1
     7    18    19    1
     8    19    20    1
     9    20    21    1
    10    21     1    1
    11     1     2    2
    12     2     3    1
    13     3     4    2
    14     4     5    1
    15     5     6    2
    16     6     7    1
    17     7    10    1
    18    10    11   ar
    19    11    12   ar
    20    12    13    1
    21    12    14   ar
    22    14    15   ar
    23    15    16    1
    24    15    17   ar
    25     7     8    2
    26     8     9    1
    27    21    22    1
    28    22    23    1
    29    29    30    1
    30    30    31    1
    31    31    26    1
    32    23    18    1
    33     9     1    1
    34     9     5    1
    35    17    10   ar
@<TRIPOS>MOLECULE
*****
 31 35 0 0 0
SMALL
GASTEIGER

@<TRIPOS>ATOM
      1 C         139.7035  140.3531  163.0208 C.2     1  UNL1        0.0824
      2 C         139.1209  139.0969  162.4441 C.2     1  UNL1        0.0149
      3 C         138.8730  137.9107  163.3280 C.2     1  UNL1        0.0047
      4 C         139.2076  137.9806  164.7885 C.2     1  UNL1        0.0469
      5 C         139.7902  139.2367  165.3652 C.2     1  UNL1        0.2253
      6 N         140.2173  139.5983  166.7569 N.2     1  UNL1       -0.0344
      7 C         140.7292  141.0081  166.7332 C.2     1  UNL1        0.3710
      8 N         140.6185  141.5178  165.3268 N.2     1  UNL1       -0.0497
      9 C         140.0382  140.4230  164.4813 C.3     1  UNL1        0.3146
     10 C         141.2588  141.7737  167.9094 C.ar    1  UNL1        0.0924
     11 C         140.4229  142.8449  168.5449 C.ar    1  UNL1        0.0375
     12 C         140.9526  143.6104  169.7211 C.ar    1  UNL1        0.1426
     13 F         140.1167  144.6817  170.3567 F       1  UNL1       -0.2041
     14 C         142.3180  143.3049  170.2617 C.ar    1  UNL1        0.0593
     15 C         143.1538  142.2337  169.6261 C.ar    1  UNL1        0.1426
     16 F         144.5192  141.9281  170.1667 F       1  UNL1       -0.2041
     17 C         142.6242  141.4681  168.4500 C.ar    1  UNL1        0.0375
     18 C         140.4475  143.9120  160.3692 C.3     1  UNL1        0.0194
     19 C         139.2708  143.9027  161.2995 C.3     1  UNL1        0.0228
     20 C         139.0228  142.7164  162.1834 C.3     1  UNL1        0.0907
     21 N         139.9515  141.5394  162.1369 N.pl3   1  UNL1       -0.3071
     22 C         141.1282  141.5487  161.2067 C.3     1  UNL1        0.0907
     23 C         141.3762  142.7350  160.3228 C.3     1  UNL1        0.0228
     24 C         140.6954  145.0983  159.4854 C.3     1  UNL1        0.0722
     25 C         140.2344  144.5496  153.5284 C.3     1  UNL1        0.0897
     26 N         140.3496  144.6868  155.0176 N.3     1  UNL1       -0.2691
     27 C         141.3122  145.6744  155.6075 C.3     1  UNL1        0.0897
     28 C         141.4275  145.8116  157.0969 C.3     1  UNL1        0.0897
     29 N         140.5802  144.9612  157.9962 N.3     1  UNL1       -0.2703
     30 C         139.6176  143.9735  157.4062 C.3     1  UNL1        0.0897
     31 C         139.5023  143.8363  155.9170 C.3     1  UNL1        0.0897
@<TRIPOS>BOND
     1    25    26    1
     2    26    27    1
     3    27    28    1
     4    28    29    1
     5    29    24    1
     6    24    18    1
     7    18    19    1
     8    19    20    1
     9    20    21    1
    10    21     1    1
    11     1     2    2
    12     2     3    1
    13     3     4    2
    14     4     5    1
    15     5     6    2
    16     6     7    1
    17     7    10    1
    18    10    11   ar
    19    11    12   ar
    20    12    13    1
    21    12    14   ar
    22    14    15   ar
    23    15    16    1
    24    15    17   ar
    25     7     8    2
    26     8     9    1
    27    21    22    1
    28    22    23    1
    29    29    30    1
    30    30    31    1
    31    31    26    1
    32    23    18    1
    33     9     1    1
    34     9     5    1
    35    17    10   ar
@<TRIPOS>MOLECULE
*****
 31 35 0 0 0
SMALL
GASTEIGER

@<TRIPOS>ATOM
      1 C         142.4172  138.9381  157.1602 C.2     1  UNL1        0.0824
      2 C         142.9806  140.1726  156.5210 C.2     1  UNL1        0.0149
      3 C         144.0452  140.0543  155.4710 C.2     1  UNL1        0.0047
      4 C         144.5465  138.7015  155.0602 C.2     1  UNL1        0.0469
      5 C         143.9831  137.4670  155.6994 C.2     1  UNL1        0.2253
      6 N         144.2780  136.0099  155.5003 N.2     1  UNL1       -0.0344
      7 C         143.3955  135.2275  156.4273 C.2     1  UNL1        0.3710
      8 N         142.5553  136.2011  157.1992 N.2     1  UNL1       -0.0497
      9 C         142.9185  137.5853  156.7493 C.3     1  UNL1        0.3146
     10 C         143.3597  133.7337  156.5591 C.ar    1  UNL1        0.0924
     11 C         144.3755  133.0313  157.4103 C.ar    1  UNL1        0.0375
     12 C         144.3396  131.5375  157.5421 C.ar    1  UNL1        0.1426
     13 F         145.3555  130.8351  158.3934 F       1  UNL1       -0.2041
     14 C         143.2879  130.7462  156.8227 C.ar    1  UNL1        0.0593
     15 C         142.2720  131.4486  155.9714 C.ar    1  UNL1        0.1426
     16 F         141.2202  130.6573  155.2520 F       1  UNL1       -0.2041
     17 C         142.3079  132.9423  155.8396 C.ar    1  UNL1        0.0375
     18 C         139.2232  139.2927  160.3102 C.3     1  UNL1        0.0194
     19 C         140.6098  138.8670  160.6926 C.3     1  UNL1        0.0228
     20 C         141.6744  138.7488  159.6426 C.3     1  UNL1        0.0907
     21 N         141.3525  139.0563  158.2102 N.pl3   1  UNL1       -0.3071
     22 C         139.9659  139.4819  157.8278 C.3     1  UNL1        0.0907
     23 C         138.9012  139.6001  158.8778 C.3     1  UNL1        0.0228
     24 C         138.1585  139.4109  161.3602 C.3     1  UNL1        0.0722
     25 C         137.8838  144.3081  164.8158 C.3     1  UNL1        0.0897
     26 N         137.9525  143.0838  163.9519 N.3     1  UNL1       -0.2691
     27 C         137.9710  143.2200  162.4583 C.3     1  UNL1        0.0897
     28 C         138.0397  141.9957  161.5943 C.3     1  UNL1        0.0897
     29 N         138.0898  140.6352  162.2241 N.3     1  UNL1       -0.2703
     30 C         138.0713  140.4991  163.7179 C.3     1  UNL1        0.0897
     31 C         138.0027  141.7234  164.5817 C.3     1  UNL1        0.0897
@<TRIPOS>BOND
     1    25    26    1
     2    26    27    1
     3    27    28    1
     4    28    29    1
     5    29    24    1
     6    24    18    1
     7    18    19    1
     8    19    20    1
     9    20    21    1
    10    21     1    1
    11     1     2    2
    12     2     3    1
    13     3     4    2
    14     4     5    1
    15     5     6    2
    16     6     7    1
    17     7    10    1
    18    10    11   ar
    19    11    12   ar
    20    12    13    1
    21    12    14   ar
    22    14    15   ar
    23    15    16    1
    24    15    17   ar
    25     7     8    2
    26     8     9    1
    27    21    22    1
    28    22    23    1
    29    29    30    1
    30    30    31    1
    31    31    26    1
    32    23    18    1
    33     9     1    1
    34     9     5    1
    35    17    10   ar
@<TRIPOS>MOLECULE
*****
 31 35 0 0 0
SMALL
GASTEIGER

@<TRIPOS>ATOM
      1 C         139.7464  142.2273  162.7869 C.2     1  UNL1        0.0824
      2 C         138.7276  143.1359  162.1653 C.2     1  UNL1        0.0149
      3 C         138.0111  144.1479  163.0094 C.2     1  UNL1        0.0047
      4 C         138.3134  144.2513  164.4750 C.2     1  UNL1        0.0469
      5 C         139.3322  143.3426  165.0965 C.2     1  UNL1        0.2253
      6 N         139.8362  143.2132  166.5033 N.2     1  UNL1       -0.0344
      7 C         140.8643  142.1211  166.5288 C.2     1  UNL1        0.3710
      8 N         140.9956  141.5757  165.1376 N.2     1  UNL1       -0.0497
      9 C         140.0487  142.3307  164.2525 C.3     1  UNL1        0.3146
     10 C         141.6270  141.6562  167.7338 C.ar    1  UNL1        0.0924
     11 C         141.1983  140.4159  168.4602 C.ar    1  UNL1        0.0375
     12 C         141.9611  139.9510  169.6652 C.ar    1  UNL1        0.1426
     13 F         141.5323  138.7106  170.3917 F       1  UNL1       -0.2041
     14 C         143.1525  140.7264  170.1438 C.ar    1  UNL1        0.0593
     15 C         143.5813  141.9667  169.4174 C.ar    1  UNL1        0.1426
     16 F         144.7728  142.7422  169.8959 F       1  UNL1       -0.2041
     17 C         142.8185  142.4316  168.2124 C.ar    1  UNL1        0.0375
     18 C         141.8961  139.1912  160.2547 C.3     1  UNL1        0.0194
     19 C         142.1778  140.6534  160.0737 C.3     1  UNL1        0.0228
     20 C         141.4612  141.6654  160.9177 C.3     1  UNL1        0.0907
     21 N         140.4630  141.2153  161.9428 N.pl3   1  UNL1       -0.3071
     22 C         140.1813  139.7531  162.1239 C.3     1  UNL1        0.0907
     23 C         140.8978  138.7411  161.2799 C.3     1  UNL1        0.0228
     24 C         142.6127  138.1793  159.4107 C.3     1  UNL1        0.0722
     25 C         140.1700  136.2954  154.2645 C.3     1  UNL1        0.0897
     26 N         140.7807  136.7663  155.5510 N.3     1  UNL1       -0.2691
     27 C         140.0098  137.6803  156.4567 C.3     1  UNL1        0.0897
     28 C         140.6204  138.1513  157.7433 C.3     1  UNL1        0.0897
     29 N         142.0020  137.7083  158.1242 N.3     1  UNL1       -0.2703
     30 C         142.7729  136.7943  157.2184 C.3     1  UNL1        0.0897
     31 C         142.1623  136.3233  155.9318 C.3     1  UNL1        0.0897
@<TRIPOS>BOND
     1    25    26    1
     2    26    27    1
     3    27    28    1
     4    28    29    1
     5    29    24    1
     6    24    18    1
     7    18    19    1
     8    19    20    1
     9    20    21    1
    10    21     1    1
    11     1     2    2
    12     2     3    1
    13     3     4    2
    14     4     5    1
    15     5     6    2
    16     6     7    1
    17     7    10    1
    18    10    11   ar
    19    11    12   ar
    20    12    13    1
    21    12    14   ar
    22    14    15   ar
    23    15    16    1
    24    15    17   ar
    25     7     8    2
    26     8     9    1
    27    21    22    1
    28    22    23    1
    29    29    30    1
    30    30    31    1
    31    31    26    1
    32    23    18    1
    33     9     1    1
    34     9     5    1
    35    17    10   ar
@<TRIPOS>MOLECULE
*****
 31 35 0 0 0
SMALL
GASTEIGER

@<TRIPOS>ATOM
      1 C         139.7406  144.0865  156.7139 C.2     1  UNL1        0.0824
      2 C         140.7455  144.7753  155.8389 C.2     1  UNL1        0.0149
      3 C         141.8674  145.5562  156.4565 C.2     1  UNL1        0.0047
      4 C         141.9845  145.6481  157.9491 C.2     1  UNL1        0.0469
      5 C         140.9796  144.9593  158.8241 C.2     1  UNL1        0.2253
      6 N         140.8388  144.8728  160.3149 N.2     1  UNL1       -0.0344
      7 C         139.6298  144.0385  160.6187 C.2     1  UNL1        0.3710
      8 N         139.0234  143.6093  159.3156 N.2     1  UNL1       -0.0497
      9 C         139.8577  144.1784  158.2065 C.3     1  UNL1        0.3146
     10 C         139.1172  143.6938  161.9857 C.ar    1  UNL1        0.0924
     11 C         138.5654  142.3257  162.2569 C.ar    1  UNL1        0.0375
     12 C         138.0528  141.9811  163.6238 C.ar    1  UNL1        0.1426
     13 F         137.5010  140.6129  163.8950 F       1  UNL1       -0.2041
     14 C         138.0921  143.0047  164.7195 C.ar    1  UNL1        0.0593
     15 C         138.6439  144.3729  164.4484 C.ar    1  UNL1        0.1426
     16 F         138.6832  145.3965  165.5442 F       1  UNL1       -0.2041
     17 C         139.1564  144.7174  163.0815 C.ar    1  UNL1        0.0375
     18 C         136.3747  141.7438  154.8611 C.3     1  UNL1        0.0194
     19 C         137.4889  141.0272  155.5647 C.3     1  UNL1        0.0228
     20 C         138.6108  141.8081  156.1823 C.3     1  UNL1        0.0907
     21 N         138.6186  143.3056  156.0962 N.pl3   1  UNL1       -0.3071
     22 C         137.5044  144.0222  155.3927 C.3     1  UNL1        0.0907
     23 C         136.3824  143.2413  154.7751 C.3     1  UNL1        0.0228
     24 C         135.2527  140.9629  154.2435 C.3     1  UNL1        0.0722
     25 C         130.5264  139.3580  157.5730 C.3     1  UNL1        0.0897
     26 N         131.7080  139.7592  156.7407 N.3     1  UNL1       -0.2691
     27 C         131.6627  141.0230  155.9340 C.3     1  UNL1        0.0897
     28 C         132.8443  141.4243  155.1016 C.3     1  UNL1        0.0897
     29 N         134.0712  140.5617  155.0759 N.3     1  UNL1       -0.2703
     30 C         134.1165  139.2978  155.8826 C.3     1  UNL1        0.0897
     31 C         132.9349  138.8966  156.7149 C.3     1  UNL1        0.0897
@<TRIPOS>BOND
     1    25    26    1
     2    26    27    1
     3    27    28    1
     4    28    29    1
     5    29    24    1
     6    24    18    1
     7    18    19    1
     8    19    20    1
     9    20    21    1
    10    21     1    1
    11     1     2    2
    12     2     3    1
    13     3     4    2
    14     4     5    1
    15     5     6    2
    16     6     7    1
    17     7    10    1
    18    10    11   ar
    19    11    12   ar
    20    12    13    1
    21    12    14   ar
    22    14    15   ar
    23    15    16    1
    24    15    17   ar
    25     7     8    2
    26     8     9    1
    27    21    22    1
    28    22    23    1
    29    29    30    1
    30    30    31    1
    31    31    26    1
    32    23    18    1
    33     9     1    1
    34     9     5    1
    35    17    10   ar
@<TRIPOS>MOLECULE
*****
 31 35 0 0 0
SMALL
GASTEIGER

@<TRIPOS>ATOM
      1 C         139.6553  138.8698  156.9479 C.2     1  UNL1        0.0824
      2 C         139.0014  139.6838  155.8710 C.2     1  UNL1        0.0149
      3 C         137.9883  140.7293  156.2319 C.2     1  UNL1        0.0047
      4 C         137.6290  140.9609  157.6697 C.2     1  UNL1        0.0469
      5 C         138.2830  140.1469  158.7466 C.2     1  UNL1        0.2253
      6 N         138.1317  140.1502  160.2389 N.2     1  UNL1       -0.0344
      7 C         139.0514  139.1067  160.8004 C.2     1  UNL1        0.3710
      8 N         139.7711  138.4585  159.6551 N.2     1  UNL1       -0.0497
      9 C         139.2961  139.1014  158.3857 C.3     1  UNL1        0.3146
     10 C         139.2216  138.7705  162.2524 C.ar    1  UNL1        0.0924
     11 C         138.3723  139.4514  163.2844 C.ar    1  UNL1        0.0375
     12 C         138.5425  139.1151  164.7362 C.ar    1  UNL1        0.1426
     13 F         137.6932  139.7960  165.7684 F       1  UNL1       -0.2041
     14 C         139.5619  138.0980  165.1561 C.ar    1  UNL1        0.0593
     15 C         140.4111  137.4171  164.1240 C.ar    1  UNL1        0.1426
     16 F         141.4306  136.4000  164.5439 F       1  UNL1       -0.2041
     17 C         140.2410  137.7534  162.6722 C.ar    1  UNL1        0.0375
     18 C         142.6950  135.7330  155.8654 C.3     1  UNL1        0.0194
     19 C         143.0720  136.8573  156.7841 C.3     1  UNL1        0.0228
     20 C         142.0588  137.9029  157.1449 C.3     1  UNL1        0.0907
     21 N         140.6686  137.8242  156.5870 N.pl3   1  UNL1       -0.3071
     22 C         140.2916  136.7000  155.6684 C.3     1  UNL1        0.0907
     23 C         141.3048  135.6544  155.3075 C.3     1  UNL1        0.0228
     24 C         143.7082  134.6875  155.5046 C.3     1  UNL1        0.0722
     25 C         143.4991  129.2840  158.1042 C.3     1  UNL1        0.0897
     26 N         143.5513  130.6349  157.4543 N.3     1  UNL1       -0.2691
     27 C         144.5497  131.6529  157.9197 C.3     1  UNL1        0.0897
     28 C         144.6021  133.0039  157.2698 C.3     1  UNL1        0.0897
     29 N         143.6559  133.3367  156.1545 N.3     1  UNL1       -0.2703
     30 C         142.6575  132.3185  155.6890 C.3     1  UNL1        0.0897
     31 C         142.6052  130.9677  156.3389 C.3     1  UNL1        0.0897
@<TRIPOS>BOND
     1    25    26    1
     2    26    27    1
     3    27    28    1
     4    28    29    1
     5    29    24    1
     6    24    18    1
     7    18    19    1
     8    19    20    1
     9    20    21    1
    10    21     1    1
    11     1     2    2
    12     2     3    1
    13     3     4    2
    14     4     5    1
    15     5     6    2
    16     6     7    1
    17     7    10    1
    18    10    11   ar
    19    11    12   ar
    20    12    13    1
    21    12    14   ar
    22    14    15   ar
    23    15    16    1
    24    15    17   ar
    25     7     8    2
    26     8     9    1
    27    21    22    1
    28    22    23    1
    29    29    30    1
    30    30    31    1
    31    31    26    1
    32    23    18    1
    33     9     1    1
    34     9     5    1
    35    17    10   ar
