@<TRIPOS>MOLECULE
*****
 30 32 0 0 0
SMALL
GASTEIGER

@<TRIPOS>ATOM
      1 N         139.3689  140.1206  163.6144 N.ar    1  UNL1       -0.2490
      2 C         138.3576  139.8872  164.6974 C.ar    1  UNL1        0.1024
      3 C         139.0903  139.4380  165.9268 C.ar    1  UNL1        0.1051
      4 C         140.5544  139.3937  165.6037 C.ar    1  UNL1        0.1578
      5 N         140.7266  139.8156  164.1746 N.ar    1  UNL1       -0.1539
      6 C         138.4851  141.4944  159.4214 C.3     1  UNL1        0.0588
      7 C         138.6798  140.0348  159.7071 C.3     1  UNL1        0.0180
      8 C         138.9744  139.5769  161.1047 C.3     1  UNL1        0.0268
      9 C         139.0743  140.5785  162.2168 C.3     1  UNL1        0.1193
     10 C         138.8796  142.0381  161.9311 C.3     1  UNL1        0.1151
     11 C         138.5850  142.4960  160.5334 C.3     1  UNL1        0.0330
     12 C         138.8969  143.1506  157.4625 C.3     1  UNL1        0.0896
     13 N         138.1905  141.9523  158.0237 N.3     1  UNL1       -0.2716
     14 C         137.1895  141.2119  157.1873 C.3     1  UNL1        0.0896
     15 C         138.9795  143.0398  163.0432 C.1     1  UNL1        0.0741
     16 N         139.0794  144.0416  164.1552 N.1     1  UNL1       -0.1958
     17 C         138.4680  139.0936  167.2475 C.2     1  UNL1        0.2470
     18 N         137.3252  138.1239  167.3079 N.am    1  UNL1       -0.3252
     19 O         138.9885  139.7189  168.5077 O.2     1  UNL1       -0.2702
     20 H         136.9836  137.7135  166.4808 H       1  UNL1        0.1453
     21 H         136.9168  137.8978  168.1747 H       1  UNL1        0.1453
     22 N         141.6533  138.9972  166.5445 N.pl3   1  UNL1       -0.2964
     23 H         141.9986  138.0753  166.5375 H       1  UNL1        0.1537
     24 C         142.2262  140.0054  167.4960 C.ar    1  UNL1        0.0495
     25 C         142.5956  141.3741  167.0058 C.ar    1  UNL1        0.0155
     26 C         143.1684  142.3822  167.9573 C.ar    1  UNL1        0.0127
     27 C         143.3720  142.0217  169.3990 C.ar    1  UNL1        0.0578
     28 CL        143.9449  143.0299  170.3506 Cl      1  UNL1       -0.0822
     29 C         143.0026  140.6530  169.8892 C.ar    1  UNL1        0.0127
     30 C         142.4297  139.6449  168.9377 C.ar    1  UNL1        0.0155
@<TRIPOS>BOND
     1    12    13    1
     2    13    14    1
     3     6    13    1
     4     6     7    1
     5     7     8    1
     6     8     9    1
     7     9     1    1
     8     1     2   ar
     9     2     3   ar
    10     3    17    1
    11    17    18   am
    12    17    19    2
    13     3     4   ar
    14     4    22    1
    15    22    24    1
    16    24    25   ar
    17    25    26   ar
    18    26    27   ar
    19    27    28    1
    20    27    29   ar
    21    29    30   ar
    22     4     5   ar
    23     9    10    1
    24    10    15    1
    25    15    16    3
    26    10    11    1
    27    11     6    1
    28     5     1   ar
    29    30    24   ar
    30    18    20    1
    31    18    21    1
    32    22    23    1
@<TRIPOS>MOLECULE
*****
 30 32 0 0 0
SMALL
GASTEIGER

@<TRIPOS>ATOM
      1 N         139.7257  139.6524  163.5074 N.ar    1  UNL1       -0.2490
      2 C         139.1348  138.7570  164.5557 C.ar    1  UNL1        0.1024
      3 C         139.0045  139.5496  165.8225 C.ar    1  UNL1        0.1051
      4 C         139.5149  140.9349  165.5571 C.ar    1  UNL1        0.1578
      5 N         139.9606  140.9984  164.1262 N.ar    1  UNL1       -0.1539
      6 C         140.6343  138.5024  159.2527 C.3     1  UNL1        0.0588
      7 C         139.2504  138.9390  159.6324 C.3     1  UNL1        0.0180
      8 C         138.9476  139.3224  161.0506 C.3     1  UNL1        0.0268
      9 C         140.0286  139.2691  162.0891 C.3     1  UNL1        0.1193
     10 C         141.4124  138.8324  161.7094 C.3     1  UNL1        0.1151
     11 C         141.7153  138.4491  160.2912 C.3     1  UNL1        0.0330
     12 C         142.3272  138.2804  157.2945 C.3     1  UNL1        0.0896
     13 N         140.9371  138.1191  157.8345 N.3     1  UNL1       -0.2716
     14 C         139.8499  137.5744  156.9563 C.3     1  UNL1        0.0896
     15 C         142.4935  138.7791  162.7480 C.1     1  UNL1        0.0741
     16 N         143.5746  138.7258  163.7864 N.1     1  UNL1       -0.1958
     17 C         138.4595  139.0455  167.1259 C.2     1  UNL1        0.2470
     18 N         137.4055  137.9782  167.1354 N.am    1  UNL1       -0.3252
     19 O         138.9683  139.6086  168.4197 O.2     1  UNL1       -0.2702
     20 H         137.0716  137.6086  166.2863 H       1  UNL1        0.1453
     21 H         137.0478  137.6473  167.9909 H       1  UNL1        0.1453
     22 N         139.5699  142.0593  166.5484 N.pl3   1  UNL1       -0.2964
     23 H         138.8183  142.6914  166.6180 H       1  UNL1        0.1537
     24 C         140.7700  142.2207  167.4337 C.ar    1  UNL1        0.0495
     25 C         142.1429  141.9521  166.8923 C.ar    1  UNL1        0.0155
     26 C         143.3429  142.1135  167.7775 C.ar    1  UNL1        0.0127
     27 C         143.1702  142.5435  169.2041 C.ar    1  UNL1        0.0578
     28 CL        144.3703  142.7049  170.0893 Cl      1  UNL1       -0.0822
     29 C         141.7974  142.8121  169.7455 C.ar    1  UNL1        0.0127
     30 C         140.5972  142.6507  168.8602 C.ar    1  UNL1        0.0155
@<TRIPOS>BOND
     1    12    13    1
     2    13    14    1
     3     6    13    1
     4     6     7    1
     5     7     8    1
     6     8     9    1
     7     9     1    1
     8     1     2   ar
     9     2     3   ar
    10     3    17    1
    11    17    18   am
    12    17    19    2
    13     3     4   ar
    14     4    22    1
    15    22    24    1
    16    24    25   ar
    17    25    26   ar
    18    26    27   ar
    19    27    28    1
    20    27    29   ar
    21    29    30   ar
    22     4     5   ar
    23     9    10    1
    24    10    15    1
    25    15    16    3
    26    10    11    1
    27    11     6    1
    28     5     1   ar
    29    30    24   ar
    30    18    20    1
    31    18    21    1
    32    22    23    1
@<TRIPOS>MOLECULE
*****
 30 32 0 0 0
SMALL
GASTEIGER

@<TRIPOS>ATOM
      1 N         140.6048  143.3819  164.2159 N.ar    1  UNL1       -0.2490
      2 C         141.0392  144.5504  163.3818 C.ar    1  UNL1        0.1024
      3 C         140.1634  144.6026  162.1651 C.ar    1  UNL1        0.1051
      4 C         139.1877  143.4662  162.2473 C.ar    1  UNL1        0.1578
      5 N         139.4606  142.7118  163.5148 N.ar    1  UNL1       -0.1539
      6 C         142.4165  142.1099  168.1338 C.3     1  UNL1        0.0588
      7 C         140.9651  142.4821  168.0643 C.3     1  UNL1        0.0180
      8 C         140.3612  142.9061  166.7584 C.3     1  UNL1        0.0268
      9 C         141.2087  142.9579  165.5219 C.3     1  UNL1        0.1193
     10 C         142.6601  142.5858  165.5914 C.3     1  UNL1        0.1151
     11 C         143.2640  142.1618  166.8973 C.3     1  UNL1        0.0330
     12 C         142.5037  140.4666  170.1442 C.3     1  UNL1        0.0896
     13 N         143.0203  141.6859  169.4398 N.3     1  UNL1       -0.2716
     14 C         144.1408  142.4812  170.0413 C.3     1  UNL1        0.0896
     15 C         143.5077  142.6376  164.3548 C.1     1  UNL1        0.0741
     16 N         144.3553  142.6894  163.1183 N.1     1  UNL1       -0.1958
     17 C         140.2484  145.6135  161.0602 C.2     1  UNL1        0.2470
     18 N         141.4037  145.5842  160.1041 N.am    1  UNL1       -0.3252
     19 O         139.1780  146.6538  160.9116 O.2     1  UNL1       -0.2702
     20 H         142.1062  144.9014  160.2016 H       1  UNL1        0.1453
     21 H         141.4595  146.2477  159.3789 H       1  UNL1        0.1453
     22 N         138.1257  143.1413  161.2391 N.pl3   1  UNL1       -0.2964
     23 H         137.2417  143.5703  161.2997 H       1  UNL1        0.1537
     24 C         138.4105  142.1626  160.1386 C.ar    1  UNL1        0.0495
     25 C         138.6086  142.6503  158.7340 C.ar    1  UNL1        0.0155
     26 C         138.8935  141.6717  157.6335 C.ar    1  UNL1        0.0127
     27 C         138.9802  140.2054  157.9376 C.ar    1  UNL1        0.0578
     28 CL        139.2650  139.2268  156.8370 Cl      1  UNL1       -0.0822
     29 C         138.7821  139.7178  159.3422 C.ar    1  UNL1        0.0127
     30 C         138.4972  140.6964  160.4427 C.ar    1  UNL1        0.0155
@<TRIPOS>BOND
     1    12    13    1
     2    13    14    1
     3     6    13    1
     4     6     7    1
     5     7     8    1
     6     8     9    1
     7     9     1    1
     8     1     2   ar
     9     2     3   ar
    10     3    17    1
    11    17    18   am
    12    17    19    2
    13     3     4   ar
    14     4    22    1
    15    22    24    1
    16    24    25   ar
    17    25    26   ar
    18    26    27   ar
    19    27    28    1
    20    27    29   ar
    21    29    30   ar
    22     4     5   ar
    23     9    10    1
    24    10    15    1
    25    15    16    3
    26    10    11    1
    27    11     6    1
    28     5     1   ar
    29    30    24   ar
    30    18    20    1
    31    18    21    1
    32    22    23    1
@<TRIPOS>MOLECULE
*****
 30 32 0 0 0
SMALL
GASTEIGER

@<TRIPOS>ATOM
      1 N         139.6524  140.1682  164.8223 N.ar    1  UNL1       -0.2490
      2 C         139.1378  139.0875  163.9183 C.ar    1  UNL1        0.1024
      3 C         138.4177  139.7419  162.7767 C.ar    1  UNL1        0.1051
      4 C         138.4872  141.2270  162.9752 C.ar    1  UNL1        0.1578
      5 N         139.2503  141.4905  164.2394 N.ar    1  UNL1       -0.1539
      6 C         141.9916  139.5516  168.6168 C.3     1  UNL1        0.0588
      7 C         140.5396  139.9217  168.6827 C.3     1  UNL1        0.0180
      8 C         139.7598  140.1272  167.4178 C.3     1  UNL1        0.0268
      9 C         140.4321  139.9626  166.0871 C.3     1  UNL1        0.1193
     10 C         141.8842  139.5925  166.0212 C.3     1  UNL1        0.1151
     11 C         142.6640  139.3870  167.2861 C.3     1  UNL1        0.0330
     12 C         143.2219  140.5295  170.6856 C.3     1  UNL1        0.0896
     13 N         142.7714  139.3461  169.8816 N.3     1  UNL1       -0.2716
     14 C         143.1006  137.9571  170.3424 C.3     1  UNL1        0.0896
     15 C         142.5567  139.4279  164.6905 C.1     1  UNL1        0.0741
     16 N         143.2290  139.2633  163.3598 N.1     1  UNL1       -0.1958
     17 C         137.7460  139.0351  161.6369 C.2     1  UNL1        0.2470
     18 N         137.6670  137.5373  161.6251 N.am    1  UNL1       -0.3252
     19 O         137.1532  139.8263  160.5087 O.2     1  UNL1       -0.2702
     20 H         138.0561  137.0180  162.3656 H       1  UNL1        0.1453
     21 H         137.2262  137.0734  160.8770 H       1  UNL1        0.1453
     22 N         137.8973  142.2663  162.0686 N.pl3   1  UNL1       -0.2964
     23 H         136.9225  142.4021  162.0441 H       1  UNL1        0.1537
     24 C         138.7926  143.0988  161.1994 C.ar    1  UNL1        0.0495
     25 C         139.5255  144.2706  161.7822 C.ar    1  UNL1        0.0155
     26 C         140.4207  145.1030  160.9131 C.ar    1  UNL1        0.0127
     27 C         140.5831  144.7637  159.4610 C.ar    1  UNL1        0.0578
     28 CL        141.4783  145.5962  158.5918 Cl      1  UNL1       -0.0822
     29 C         139.8502  143.5919  158.8782 C.ar    1  UNL1        0.0127
     30 C         138.9549  142.7594  159.7474 C.ar    1  UNL1        0.0155
@<TRIPOS>BOND
     1    12    13    1
     2    13    14    1
     3     6    13    1
     4     6     7    1
     5     7     8    1
     6     8     9    1
     7     9     1    1
     8     1     2   ar
     9     2     3   ar
    10     3    17    1
    11    17    18   am
    12    17    19    2
    13     3     4   ar
    14     4    22    1
    15    22    24    1
    16    24    25   ar
    17    25    26   ar
    18    26    27   ar
    19    27    28    1
    20    27    29   ar
    21    29    30   ar
    22     4     5   ar
    23     9    10    1
    24    10    15    1
    25    15    16    3
    26    10    11    1
    27    11     6    1
    28     5     1   ar
    29    30    24   ar
    30    18    20    1
    31    18    21    1
    32    22    23    1
@<TRIPOS>MOLECULE
*****
 30 32 0 0 0
SMALL
GASTEIGER

@<TRIPOS>ATOM
      1 N         139.4445  140.7534  164.9724 N.ar    1  UNL1       -0.2490
      2 C         139.1562  139.5142  164.1778 C.ar    1  UNL1        0.1024
      3 C         138.5081  139.9294  162.8903 C.ar    1  UNL1        0.1051
      4 C         138.3958  141.4252  162.8892 C.ar    1  UNL1        0.1578
      5 N         138.9746  141.9344  164.1760 N.ar    1  UNL1       -0.1539
      6 C         141.3796  140.9017  169.0324 C.3     1  UNL1        0.0588
      7 C         141.9346  141.7229  167.9066 C.3     1  UNL1        0.0180
      8 C         141.2895  141.6735  166.5532 C.3     1  UNL1        0.0268
      9 C         140.0895  140.8028  166.3257 C.3     1  UNL1        0.1193
     10 C         139.5345  139.9815  167.4515 C.3     1  UNL1        0.1151
     11 C         140.1795  140.0310  168.8048 C.3     1  UNL1        0.0330
     12 C         141.5966  141.9863  171.3832 C.3     1  UNL1        0.0896
     13 N         142.0246  140.9511  170.3857 N.3     1  UNL1       -0.2716
     14 C         143.0976  139.9652  170.7416 C.3     1  UNL1        0.0896
     15 C         138.3344  139.1108  167.2240 C.1     1  UNL1        0.0741
     16 N         137.1345  138.2401  166.9964 N.1     1  UNL1       -0.1958
     17 C         138.0523  139.0102  161.7961 C.2     1  UNL1        0.2470
     18 N         138.2144  137.5267  161.9468 N.am    1  UNL1       -0.3252
     19 O         137.4343  139.5746  160.5512 O.2     1  UNL1       -0.2702
     20 H         138.6199  137.1563  162.7639 H       1  UNL1        0.1453
     21 H         137.9152  136.9233  161.2287 H       1  UNL1        0.1453
     22 N         137.8080  142.2645  161.7937 N.pl3   1  UNL1       -0.2964
     23 H         136.8347  142.2697  161.6460 H       1  UNL1        0.1537
     24 C         138.7032  143.0957  160.9232 C.ar    1  UNL1        0.0495
     25 C         138.8224  142.7883  159.4599 C.ar    1  UNL1        0.0155
     26 C         139.7176  143.6195  158.5895 C.ar    1  UNL1        0.0127
     27 C         140.4935  144.7582  159.1823 C.ar    1  UNL1        0.0578
     28 CL        141.3887  145.5894  158.3118 Cl      1  UNL1       -0.0822
     29 C         140.3742  145.0655  160.6456 C.ar    1  UNL1        0.0127
     30 C         139.4790  144.2343  161.5161 C.ar    1  UNL1        0.0155
@<TRIPOS>BOND
     1    12    13    1
     2    13    14    1
     3     6    13    1
     4     6     7    1
     5     7     8    1
     6     8     9    1
     7     9     1    1
     8     1     2   ar
     9     2     3   ar
    10     3    17    1
    11    17    18   am
    12    17    19    2
    13     3     4   ar
    14     4    22    1
    15    22    24    1
    16    24    25   ar
    17    25    26   ar
    18    26    27   ar
    19    27    28    1
    20    27    29   ar
    21    29    30   ar
    22     4     5   ar
    23     9    10    1
    24    10    15    1
    25    15    16    3
    26    10    11    1
    27    11     6    1
    28     5     1   ar
    29    30    24   ar
    30    18    20    1
    31    18    21    1
    32    22    23    1
@<TRIPOS>MOLECULE
*****
 30 32 0 0 0
SMALL
GASTEIGER

@<TRIPOS>ATOM
      1 N         141.2868  141.4370  161.9206 N.ar    1  UNL1       -0.2490
      2 C         141.2330  142.9345  161.9878 C.ar    1  UNL1        0.1024
      3 C         140.7238  143.3196  163.3452 C.ar    1  UNL1        0.1051
      4 C         140.4630  142.0601  164.1169 C.ar    1  UNL1        0.1578
      5 N         140.8109  140.8966  163.2365 N.ar    1  UNL1       -0.1539
      6 C         142.6387  138.9944  158.3913 C.3     1  UNL1        0.0588
      7 C         141.1829  139.3062  158.5741 C.3     1  UNL1        0.0180
      8 C         140.7323  140.1204  159.7506 C.3     1  UNL1        0.0268
      9 C         141.7375  140.6228  160.7442 C.3     1  UNL1        0.1193
     10 C         143.1932  140.3110  160.5613 C.3     1  UNL1        0.1151
     11 C         143.6438  139.4968  159.3849 C.3     1  UNL1        0.0330
     12 C         142.8559  136.6987  157.1945 C.3     1  UNL1        0.0896
     13 N         143.0893  138.1802  157.2148 N.3     1  UNL1       -0.2716
     14 C         143.7734  138.8476  156.0587 C.3     1  UNL1        0.0896
     15 C         144.1985  140.8133  161.5549 C.1     1  UNL1        0.0741
     16 N         145.2036  141.3156  162.5485 N.1     1  UNL1       -0.1958
     17 C         140.5126  144.7186  163.8433 C.2     1  UNL1        0.2470
     18 N         141.4027  145.8273  163.3653 N.am    1  UNL1       -0.3252
     19 O         139.4113  145.0090  164.8194 O.2     1  UNL1       -0.2702
     20 H         142.1255  145.6368  162.7246 H       1  UNL1        0.1453
     21 H         141.2641  146.7456  163.6922 H       1  UNL1        0.1453
     22 N         139.9451  141.9785  165.5223 N.pl3   1  UNL1       -0.2964
     23 H         138.9907  141.8002  165.6857 H       1  UNL1        0.1537
     24 C         140.8813  142.1683  166.6789 C.ar    1  UNL1        0.0495
     25 C         142.3489  141.9110  166.5059 C.ar    1  UNL1        0.0155
     26 C         143.2850  142.1008  167.6623 C.ar    1  UNL1        0.0127
     27 C         142.7536  142.5480  168.9918 C.ar    1  UNL1        0.0578
     28 CL        143.6898  142.7379  170.1484 Cl      1  UNL1       -0.0822
     29 C         141.2860  142.8053  169.1648 C.ar    1  UNL1        0.0127
     30 C         140.3498  142.6155  168.0083 C.ar    1  UNL1        0.0155
@<TRIPOS>BOND
     1    12    13    1
     2    13    14    1
     3     6    13    1
     4     6     7    1
     5     7     8    1
     6     8     9    1
     7     9     1    1
     8     1     2   ar
     9     2     3   ar
    10     3    17    1
    11    17    18   am
    12    17    19    2
    13     3     4   ar
    14     4    22    1
    15    22    24    1
    16    24    25   ar
    17    25    26   ar
    18    26    27   ar
    19    27    28    1
    20    27    29   ar
    21    29    30   ar
    22     4     5   ar
    23     9    10    1
    24    10    15    1
    25    15    16    3
    26    10    11    1
    27    11     6    1
    28     5     1   ar
    29    30    24   ar
    30    18    20    1
    31    18    21    1
    32    22    23    1
@<TRIPOS>MOLECULE
*****
 30 32 0 0 0
SMALL
GASTEIGER

@<TRIPOS>ATOM
      1 N         140.4388  138.9894  163.0434 N.ar    1  UNL1       -0.2490
      2 C         139.6604  138.0518  163.9180 C.ar    1  UNL1        0.1024
      3 C         139.2533  138.7998  165.1528 C.ar    1  UNL1        0.1051
      4 C         139.7801  140.1999  165.0413 C.ar    1  UNL1        0.1578
      5 N         140.5128  140.3170  163.7377 N.ar    1  UNL1       -0.1539
      6 C         142.2363  137.9943  159.0398 C.3     1  UNL1        0.0588
      7 C         143.0290  137.7728  160.2938 C.3     1  UNL1        0.0180
      8 C         142.4298  138.1045  161.6283 C.3     1  UNL1        0.0268
      9 C         141.0380  138.6577  161.7089 C.3     1  UNL1        0.1193
     10 C         140.2453  138.8793  160.4549 C.3     1  UNL1        0.1151
     11 C         140.8445  138.5476  159.1204 C.3     1  UNL1        0.0330
     12 C         143.0241  136.2300  157.3031 C.3     1  UNL1        0.0896
     13 N         142.8355  137.6626  157.7053 N.3     1  UNL1       -0.2716
     14 C         143.2462  138.7636  156.7730 C.3     1  UNL1        0.0896
     15 C         138.8533  139.4326  160.5354 C.1     1  UNL1        0.0741
     16 N         137.4614  139.9858  160.6159 N.1     1  UNL1       -0.1958
     17 C         138.4589  138.2453  166.2979 C.2     1  UNL1        0.2470
     18 N         137.7930  136.9072  166.1703 N.am    1  UNL1       -0.3252
     19 O         138.3303  139.0287  167.5706 O.2     1  UNL1       -0.2702
     20 H         137.8774  136.3931  165.3350 H       1  UNL1        0.1453
     21 H         137.2716  136.5432  166.9219 H       1  UNL1        0.1453
     22 N         139.6051  141.2911  166.0555 N.pl3   1  UNL1       -0.2964
     23 H         138.7614  141.7971  166.0934 H       1  UNL1        0.1537
     24 C         140.7154  141.6114  167.0118 C.ar    1  UNL1        0.0495
     25 C         142.0958  141.8866  166.4934 C.ar    1  UNL1        0.0155
     26 C         143.2060  142.2069  167.4497 C.ar    1  UNL1        0.0127
     27 C         142.9360  142.2521  168.9245 C.ar    1  UNL1        0.0578
     28 CL        144.0463  142.5724  169.8809 Cl      1  UNL1       -0.0822
     29 C         141.5556  141.9769  169.4429 C.ar    1  UNL1        0.0127
     30 C         140.4453  141.6565  168.4866 C.ar    1  UNL1        0.0155
@<TRIPOS>BOND
     1    12    13    1
     2    13    14    1
     3     6    13    1
     4     6     7    1
     5     7     8    1
     6     8     9    1
     7     9     1    1
     8     1     2   ar
     9     2     3   ar
    10     3    17    1
    11    17    18   am
    12    17    19    2
    13     3     4   ar
    14     4    22    1
    15    22    24    1
    16    24    25   ar
    17    25    26   ar
    18    26    27   ar
    19    27    28    1
    20    27    29   ar
    21    29    30   ar
    22     4     5   ar
    23     9    10    1
    24    10    15    1
    25    15    16    3
    26    10    11    1
    27    11     6    1
    28     5     1   ar
    29    30    24   ar
    30    18    20    1
    31    18    21    1
    32    22    23    1
@<TRIPOS>MOLECULE
*****
 30 32 0 0 0
SMALL
GASTEIGER

@<TRIPOS>ATOM
      1 N         141.6989  142.4442  161.5245 N.ar    1  UNL1       -0.2490
      2 C         140.5124  143.3619  161.5244 C.ar    1  UNL1        0.1024
      3 C         139.9900  143.4444  162.9280 C.ar    1  UNL1        0.1051
      4 C         140.8536  142.5776  163.7957 C.ar    1  UNL1        0.1578
      5 N         141.9098  141.9595  162.9282 N.ar    1  UNL1       -0.1539
      6 C         144.1886  141.3392  157.9425 C.3     1  UNL1        0.0588
      7 C         144.4946  142.5902  158.7115 C.3     1  UNL1        0.0180
      8 C         143.6647  142.9585  159.9055 C.3     1  UNL1        0.0268
      9 C         142.5288  142.0759  160.3305 C.3     1  UNL1        0.1193
     10 C         142.2228  140.8249  159.5615 C.3     1  UNL1        0.1151
     11 C         143.0527  140.4566  158.3675 C.3     1  UNL1        0.0330
     12 C         144.6246  139.8038  155.8925 C.3     1  UNL1        0.0896
     13 N         145.0184  140.9709  156.7485 N.3     1  UNL1       -0.2716
     14 C         146.2422  141.7696  156.4105 C.3     1  UNL1        0.0896
     15 C         141.0868  139.9422  159.9865 C.1     1  UNL1        0.0741
     16 N         139.9509  139.0596  160.4114 N.1     1  UNL1       -0.1958
     17 C         138.8110  144.2519  163.3840 C.2     1  UNL1        0.2470
     18 N         137.6448  144.4616  162.4642 N.am    1  UNL1       -0.3252
     19 O         138.7981  144.8496  164.7597 O.2     1  UNL1       -0.2702
     20 H         137.6532  144.0692  161.5613 H       1  UNL1        0.1453
     21 H         136.8709  144.9915  162.7634 H       1  UNL1        0.1453
     22 N         140.6899  142.3661  165.2716 N.pl3   1  UNL1       -0.2964
     23 H         141.1405  142.9672  165.9080 H       1  UNL1        0.1537
     24 C         139.8397  141.2389  165.7780 C.ar    1  UNL1        0.0495
     25 C         139.9090  140.8370  167.2215 C.ar    1  UNL1        0.0155
     26 C         139.0588  139.7098  167.7279 C.ar    1  UNL1        0.0127
     27 C         138.1393  138.9844  166.7908 C.ar    1  UNL1        0.0578
     28 CL        137.2890  137.8571  167.2972 Cl      1  UNL1       -0.0822
     29 C         138.0699  139.3863  165.3473 C.ar    1  UNL1        0.0127
     30 C         138.9201  140.5135  164.8409 C.ar    1  UNL1        0.0155
@<TRIPOS>BOND
     1    12    13    1
     2    13    14    1
     3     6    13    1
     4     6     7    1
     5     7     8    1
     6     8     9    1
     7     9     1    1
     8     1     2   ar
     9     2     3   ar
    10     3    17    1
    11    17    18   am
    12    17    19    2
    13     3     4   ar
    14     4    22    1
    15    22    24    1
    16    24    25   ar
    17    25    26   ar
    18    26    27   ar
    19    27    28    1
    20    27    29   ar
    21    29    30   ar
    22     4     5   ar
    23     9    10    1
    24    10    15    1
    25    15    16    3
    26    10    11    1
    27    11     6    1
    28     5     1   ar
    29    30    24   ar
    30    18    20    1
    31    18    21    1
    32    22    23    1
@<TRIPOS>MOLECULE
*****
 30 32 0 0 0
SMALL
GASTEIGER

@<TRIPOS>ATOM
      1 N         138.8768  141.9753  159.9740 N.ar    1  UNL1       -0.2490
      2 C         139.3721  140.5597  160.0026 C.ar    1  UNL1        0.1024
      3 C         138.8640  139.9161  161.2586 C.ar    1  UNL1        0.1051
      4 C         138.0546  140.9338  162.0063 C.ar    1  UNL1        0.1578
      5 N         138.0625  142.2065  161.2123 N.ar    1  UNL1       -0.1539
      6 C         139.6906  144.9976  156.7408 C.3     1  UNL1        0.0588
      7 C         140.3540  145.1339  158.0792 C.3     1  UNL1        0.0180
      8 C         140.0828  144.1265  159.1569 C.3     1  UNL1        0.0268
      9 C         139.1480  142.9827  158.8963 C.3     1  UNL1        0.1193
     10 C         138.4846  142.8463  157.5579 C.3     1  UNL1        0.1151
     11 C         138.7559  143.8538  156.4802 C.3     1  UNL1        0.0330
     12 C         141.0781  145.7774  154.6874 C.3     1  UNL1        0.0896
     13 N         139.9619  146.0050  155.6631 N.3     1  UNL1       -0.2716
     14 C         139.1169  147.2401  155.5611 C.3     1  UNL1        0.0896
     15 C         137.5498  141.7025  157.2972 C.1     1  UNL1        0.0741
     16 N         136.6151  140.5587  157.0366 N.1     1  UNL1       -0.1958
     17 C         139.1203  138.5028  161.6910 C.2     1  UNL1        0.2470
     18 N         137.9686  137.5885  161.9871 N.am    1  UNL1       -0.3252
     19 O         140.5283  138.0037  161.8273 O.2     1  UNL1       -0.2702
     20 H         137.0445  137.9161  161.8976 H       1  UNL1        0.1453
     21 H         138.1368  136.6609  162.2709 H       1  UNL1        0.1453
     22 N         137.3594  140.7171  163.3177 N.pl3   1  UNL1       -0.2964
     23 H         136.3804  140.6169  163.3451 H       1  UNL1        0.1537
     24 C         138.1558  140.6529  164.5872 C.ar    1  UNL1        0.0495
     25 C         138.0506  139.4512  165.4786 C.ar    1  UNL1        0.0155
     26 C         138.8470  139.3870  166.7480 C.ar    1  UNL1        0.0127
     27 C         139.7486  140.5246  167.1261 C.ar    1  UNL1        0.0578
     28 CL        140.5450  140.4604  168.3956 Cl      1  UNL1       -0.0822
     29 C         139.8538  141.7264  166.2347 C.ar    1  UNL1        0.0127
     30 C         139.0574  141.7905  164.9652 C.ar    1  UNL1        0.0155
@<TRIPOS>BOND
     1    12    13    1
     2    13    14    1
     3     6    13    1
     4     6     7    1
     5     7     8    1
     6     8     9    1
     7     9     1    1
     8     1     2   ar
     9     2     3   ar
    10     3    17    1
    11    17    18   am
    12    17    19    2
    13     3     4   ar
    14     4    22    1
    15    22    24    1
    16    24    25   ar
    17    25    26   ar
    18    26    27   ar
    19    27    28    1
    20    27    29   ar
    21    29    30   ar
    22     4     5   ar
    23     9    10    1
    24    10    15    1
    25    15    16    3
    26    10    11    1
    27    11     6    1
    28     5     1   ar
    29    30    24   ar
    30    18    20    1
    31    18    21    1
    32    22    23    1
