@<TRIPOS>MOLECULE
*****
 26 28 0 0 0
SMALL
GASTEIGER

@<TRIPOS>ATOM
      1 O         141.5524  142.4540  167.6440 O.2     1  UNL1       -0.2701
      2 C         141.3967  141.8845  166.2650 C.2     1  UNL1        0.2470
      3 N         142.3969  142.6832  165.4830 N.am    1  UNL1       -0.2972
      4 CA        143.1595  143.1071  164.2628 C.3     1  UNL1        0.1143
      5 C         143.5525  143.0828  162.8155 C.3     1  UNL1        0.0727
      6 C         143.5080  142.6144  161.3911 C.ar    1  UNL1        0.0799
      7 C         142.4803  141.5262  161.2929 C.ar    1  UNL1        0.0923
      8 N         142.4359  141.0579  159.8686 N.ar    1  UNL1       -0.3039
      9 C         143.4361  141.8566  159.0865 C.ar    1  UNL1        0.1785
     10 N         144.0987  142.8186  160.0275 N.ar    1  UNL1       -0.2282
     11 C         141.1840  139.6443  159.4520 C.3     1  UNL1        0.1339
     12 C         140.1284  138.7067  159.9584 C.2     1  UNL1       -0.0026
     13 C         139.2273  138.0817  160.9819 C.2     1  UNL1        0.0180
     14 C         138.6366  137.8775  162.3455 C.3     1  UNL1        0.2315
     15 O         138.4584  138.1293  163.8134 O.3     1  UNL1       -0.4707
     16 C         138.7236  138.7937  165.1318 C.ar    1  UNL1        0.1393
     17 C         138.2276  138.7135  166.5847 C.ar    1  UNL1        0.0378
     18 C         138.5994  139.4655  167.8282 C.ar    1  UNL1        0.0147
     19 C         139.6514  140.5332  167.7727 C.ar    1  UNL1        0.0622
     20 CL        140.0232  141.2852  169.0162 Cl      1  UNL1       -0.0821
     21 C         140.3317  140.8489  166.4737 C.ar    1  UNL1        0.0669
     22 C         139.3862  139.7557  166.0728 C.ar    1  UNL1        0.0423
     23 H         142.7720  143.2750  166.1746 H       1  UNL1        0.1500
     24 C         144.0481  144.1849  164.8092 C.2     1  UNL1        0.0686
     25 O         144.0458  145.5480  164.1831 O.co2   1  UNL1       -0.5475
     26 OXT       144.9392  143.8997  165.9817 O.co2   1  UNL1       -0.5475
@<TRIPOS>UNITY_ATOM_ATTR
25 1
charge -1
@<TRIPOS>BOND
     1     1     2    2
     2     2     3   am
     3     3     4    1
     4     4    24    1
     5    24    25   ar
     6    24    26   ar
     7     4     5    1
     8     5     6    1
     9     6     7   ar
    10     7     8   ar
    11     8     9   ar
    12     9    10   ar
    13     8    11    1
    14    11    12    1
    15    12    13    2
    16    13    14    1
    17    14    15    1
    18    15    16    1
    19    16    17   ar
    20    17    18   ar
    21    18    19   ar
    22    19    20    1
    23    19    21   ar
    24    21    22   ar
    25    21     2    1
    26    10     6   ar
    27    22    16   ar
    28     3    23    1
@<TRIPOS>MOLECULE
*****
 26 28 0 0 0
SMALL
GASTEIGER

@<TRIPOS>ATOM
      1 O         143.0626  140.6608  162.1380 O.2     1  UNL1       -0.2701
      2 C         142.3402  140.5674  163.4493 C.2     1  UNL1        0.2470
      3 N         143.1764  141.4484  164.3294 N.am    1  UNL1       -0.2972
      4 CA        143.5677  142.1383  165.6026 C.3     1  UNL1        0.1143
      5 C         143.4463  142.5177  167.0487 C.3     1  UNL1        0.0727
      6 C         142.8333  142.5211  168.4178 C.ar    1  UNL1        0.0799
      7 C         141.6182  141.6422  168.3838 C.ar    1  UNL1        0.0923
      8 N         141.0053  141.6456  169.7528 N.ar    1  UNL1       -0.3039
      9 C         141.8415  142.5266  170.6329 C.ar    1  UNL1        0.1785
     10 N         142.9712  143.0677  169.8078 N.ar    1  UNL1       -0.2282
     11 C         139.4081  140.5836  169.9979 C.3     1  UNL1        0.1339
     12 C         138.3997  139.6631  169.3769 C.2     1  UNL1       -0.0026
     13 C         137.7722  138.8601  168.2761 C.2     1  UNL1        0.0180
     14 C         137.6342  138.3135  166.8861 C.3     1  UNL1        0.2315
     15 O         138.0096  138.1178  165.4471 O.3     1  UNL1       -0.4707
     16 C         138.8334  138.3069  164.2079 C.ar    1  UNL1        0.1393
     17 C         138.8390  137.8389  162.7436 C.ar    1  UNL1        0.0378
     18 C         139.7553  138.1216  161.5901 C.ar    1  UNL1        0.0147
     19 C         140.9376  139.0260  161.7755 C.ar    1  UNL1        0.0622
     20 CL        141.8538  139.3087  160.6220 Cl      1  UNL1       -0.0821
     21 C         141.2036  139.6476  163.1145 C.ar    1  UNL1        0.0669
     22 C         139.9632  138.8480  163.3828 C.ar    1  UNL1        0.0423
     23 H         143.8787  141.7501  163.7090 H       1  UNL1        0.1500
     24 C         144.8004  142.8848  165.1867 C.2     1  UNL1        0.0686
     25 O         145.6123  142.4019  164.0216 O.co2   1  UNL1       -0.5475
     26 OXT       145.2212  144.1144  165.9359 O.co2   1  UNL1       -0.5475
@<TRIPOS>UNITY_ATOM_ATTR
25 1
charge -1
@<TRIPOS>BOND
     1     1     2    2
     2     2     3   am
     3     3     4    1
     4     4    24    1
     5    24    25   ar
     6    24    26   ar
     7     4     5    1
     8     5     6    1
     9     6     7   ar
    10     7     8   ar
    11     8     9   ar
    12     9    10   ar
    13     8    11    1
    14    11    12    1
    15    12    13    2
    16    13    14    1
    17    14    15    1
    18    15    16    1
    19    16    17   ar
    20    17    18   ar
    21    18    19   ar
    22    19    20    1
    23    19    21   ar
    24    21    22   ar
    25    21     2    1
    26    10     6   ar
    27    22    16   ar
    28     3    23    1
@<TRIPOS>MOLECULE
*****
 26 28 0 0 0
SMALL
GASTEIGER

@<TRIPOS>ATOM
      1 O         138.5101  141.6150  165.0945 O.2     1  UNL1       -0.2701
      2 C         139.3470  141.4112  163.8664 C.2     1  UNL1        0.2470
      3 N         139.4114  142.7983  163.2992 N.am    1  UNL1       -0.2972
      4 CA        139.8126  143.8609  162.3194 C.3     1  UNL1        0.1143
      5 C         140.4814  144.4151  161.0965 C.3     1  UNL1        0.0727
      6 C         141.3020  144.3652  159.8418 C.ar    1  UNL1        0.0799
      7 C         141.7448  142.9472  159.6336 C.ar    1  UNL1        0.0923
      8 N         142.5653  142.8973  158.3790 N.ar    1  UNL1       -0.3039
      9 C         142.6298  144.2844  157.8117 C.ar    1  UNL1        0.1785
     10 N         141.8490  145.1916  158.7158 N.ar    1  UNL1       -0.2282
     11 C         143.2722  141.1725  157.8650 C.3     1  UNL1        0.1339
     12 C         143.3843  139.7111  158.1839 C.2     1  UNL1       -0.0026
     13 C         143.1462  138.4589  158.9747 C.2     1  UNL1        0.0180
     14 C         142.5993  137.6324  160.1006 C.3     1  UNL1        0.2315
     15 O         141.8380  137.3746  161.3671 O.3     1  UNL1       -0.4707
     16 C         140.9940  137.7300  162.5551 C.ar    1  UNL1        0.1393
     17 C         140.3610  137.0336  163.7706 C.ar    1  UNL1        0.0378
     18 C         139.5191  137.5368  164.9055 C.ar    1  UNL1        0.0147
     19 C         139.1539  138.9897  164.9817 C.ar    1  UNL1        0.0622
     20 CL        138.3120  139.4929  166.1166 Cl      1  UNL1       -0.0821
     21 C         139.6306  139.9393  163.9230 C.ar    1  UNL1        0.0669
     22 C         140.2132  138.6372  163.4591 C.ar    1  UNL1        0.0423
     23 H         138.8797  143.3106  163.9504 H       1  UNL1        0.1500
     24 C         139.1694  145.0832  162.9041 C.2     1  UNL1        0.0686
     25 O         138.8453  145.1328  164.3679 O.co2   1  UNL1       -0.5475
     26 OXT       138.8502  146.2561  162.0252 O.co2   1  UNL1       -0.5475
@<TRIPOS>UNITY_ATOM_ATTR
25 1
charge -1
@<TRIPOS>BOND
     1     1     2    2
     2     2     3   am
     3     3     4    1
     4     4    24    1
     5    24    25   ar
     6    24    26   ar
     7     4     5    1
     8     5     6    1
     9     6     7   ar
    10     7     8   ar
    11     8     9   ar
    12     9    10   ar
    13     8    11    1
    14    11    12    1
    15    12    13    2
    16    13    14    1
    17    14    15    1
    18    15    16    1
    19    16    17   ar
    20    17    18   ar
    21    18    19   ar
    22    19    20    1
    23    19    21   ar
    24    21    22   ar
    25    21     2    1
    26    10     6   ar
    27    22    16   ar
    28     3    23    1
@<TRIPOS>MOLECULE
*****
 26 28 0 0 0
SMALL
GASTEIGER

@<TRIPOS>ATOM
      1 O         141.8728  145.0249  160.2306 O.2     1  UNL1       -0.2701
      2 C         141.4532  143.7760  160.9477 C.2     1  UNL1        0.2470
      3 N         142.3186  143.8138  162.1723 N.am    1  UNL1       -0.2972
      4 CA        142.8600  143.3258  163.4833 C.3     1  UNL1        0.1143
      5 C         142.9837  142.3963  164.6541 C.3     1  UNL1        0.0727
      6 C         142.6682  141.1860  165.4822 C.ar    1  UNL1        0.0799
      7 C         141.6078  140.4002  164.7694 C.ar    1  UNL1        0.0923
      8 N         141.2924  139.1899  165.5975 N.ar    1  UNL1       -0.3039
      9 C         142.1578  139.2277  166.8221 C.ar    1  UNL1        0.1785
     10 N         143.0081  140.4614  166.7508 N.ar    1  UNL1       -0.2282
     11 C         139.9443  137.9869  164.9089 C.3     1  UNL1        0.1339
     12 C         138.9704  137.6827  163.8094 C.2     1  UNL1       -0.0026
     13 C         138.2512  137.9129  162.5133 C.2     1  UNL1        0.0180
     14 C         137.9113  138.6375  161.2447 C.3     1  UNL1        0.2315
     15 O         138.0093  139.7312  160.2229 O.3     1  UNL1       -0.4707
     16 C         138.5284  141.0051  159.6247 C.ar    1  UNL1        0.1393
     17 C         138.3014  141.8685  158.3732 C.ar    1  UNL1        0.0378
     18 C         138.9143  143.1534  157.9004 C.ar    1  UNL1        0.0147
     19 C         139.9702  143.8285  158.7245 C.ar    1  UNL1        0.0622
     20 CL        140.5831  145.1134  158.2517 Cl      1  UNL1       -0.0821
     21 C         140.4133  143.2188  160.0214 C.ar    1  UNL1        0.0669
     22 C         139.3787  142.2387  159.5534 C.ar    1  UNL1        0.0423
     23 H         142.8302  144.6438  162.0358 H       1  UNL1        0.1500
     24 C         143.8645  144.3874  163.8206 C.2     1  UNL1        0.0686
     25 O         144.2432  145.4146  162.7951 O.co2   1  UNL1       -0.5475
     26 OXT       144.4905  144.4220  165.1834 O.co2   1  UNL1       -0.5475
@<TRIPOS>UNITY_ATOM_ATTR
25 1
charge -1
@<TRIPOS>BOND
     1     1     2    2
     2     2     3   am
     3     3     4    1
     4     4    24    1
     5    24    25   ar
     6    24    26   ar
     7     4     5    1
     8     5     6    1
     9     6     7   ar
    10     7     8   ar
    11     8     9   ar
    12     9    10   ar
    13     8    11    1
    14    11    12    1
    15    12    13    2
    16    13    14    1
    17    14    15    1
    18    15    16    1
    19    16    17   ar
    20    17    18   ar
    21    18    19   ar
    22    19    20    1
    23    19    21   ar
    24    21    22   ar
    25    21     2    1
    26    10     6   ar
    27    22    16   ar
    28     3    23    1
@<TRIPOS>MOLECULE
*****
 26 28 0 0 0
SMALL
GASTEIGER

@<TRIPOS>ATOM
      1 O         141.8296  137.4154  162.0974 O.2     1  UNL1       -0.2701
      2 C         141.4418  138.8640  162.0602 C.2     1  UNL1        0.2470
      3 N         142.1493  139.3447  160.8280 N.am    1  UNL1       -0.2972
      4 CA        142.5733  140.3445  159.7933 C.3     1  UNL1        0.1143
      5 C         142.6403  141.6907  159.1351 C.3     1  UNL1        0.0727
      6 C         142.3388  143.1505  158.9672 C.ar    1  UNL1        0.0799
      7 C         141.4449  143.5720  160.0956 C.ar    1  UNL1        0.0923
      8 N         141.1435  145.0317  159.9276 N.ar    1  UNL1       -0.3039
      9 C         141.8510  145.5125  158.6954 C.ar    1  UNL1        0.1785
     10 N         142.5898  144.3498  158.1018 N.ar    1  UNL1       -0.2282
     11 C         139.9997  145.8465  161.2569 C.3     1  UNL1        0.1339
     12 C         139.1939  145.6630  162.5086 C.2     1  UNL1       -0.0026
     13 C         138.6155  144.9062  163.6674 C.2     1  UNL1        0.0180
     14 C         138.3645  143.7069  164.5327 C.3     1  UNL1        0.2315
     15 O         138.4844  142.2726  164.9550 O.3     1  UNL1       -0.4707
     16 C         138.9543  140.8512  164.8612 C.ar    1  UNL1        0.1393
     17 C         138.8005  139.5317  165.6348 C.ar    1  UNL1        0.0378
     18 C         139.3474  138.1530  165.4110 C.ar    1  UNL1        0.0147
     19 C         140.2336  137.8800  164.2320 C.ar    1  UNL1        0.0622
     20 CL        140.7806  136.5013  164.0082 Cl      1  UNL1       -0.0821
     21 C         140.5729  138.9856  163.2768 C.ar    1  UNL1        0.0669
     22 C         139.6931  139.6885  164.2676 C.ar    1  UNL1        0.0423
     23 H         142.5970  138.5251  160.5162 H       1  UNL1        0.1500
     24 C         143.4316  139.5117  158.8880 C.2     1  UNL1        0.0686
     25 O         143.2688  138.0208  158.8625 O.co2   1  UNL1       -0.5475
     26 OXT       144.4528  140.1697  158.0081 O.co2   1  UNL1       -0.5475
@<TRIPOS>UNITY_ATOM_ATTR
25 1
charge -1
@<TRIPOS>BOND
     1     1     2    2
     2     2     3   am
     3     3     4    1
     4     4    24    1
     5    24    25   ar
     6    24    26   ar
     7     4     5    1
     8     5     6    1
     9     6     7   ar
    10     7     8   ar
    11     8     9   ar
    12     9    10   ar
    13     8    11    1
    14    11    12    1
    15    12    13    2
    16    13    14    1
    17    14    15    1
    18    15    16    1
    19    16    17   ar
    20    17    18   ar
    21    18    19   ar
    22    19    20    1
    23    19    21   ar
    24    21    22   ar
    25    21     2    1
    26    10     6   ar
    27    22    16   ar
    28     3    23    1
@<TRIPOS>MOLECULE
*****
 26 28 0 0 0
SMALL
GASTEIGER

@<TRIPOS>ATOM
      1 O         137.6559  138.8745  165.3195 O.2     1  UNL1       -0.2701
      2 C         138.8305  139.6822  164.8528 C.2     1  UNL1        0.2470
      3 N         138.6643  139.6420  163.3625 N.am    1  UNL1       -0.2972
      4 CA        139.0151  139.9445  161.9359 C.3     1  UNL1        0.1143
      5 C         139.8225  140.5376  160.8195 C.3     1  UNL1        0.0727
      6 C         140.9469  141.3187  160.2064 C.ar    1  UNL1        0.0799
      7 C         141.8080  141.8417  161.3177 C.ar    1  UNL1        0.0923
      8 N         142.9322  142.6227  160.7046 N.ar    1  UNL1       -0.3039
      9 C         142.7660  142.5825  159.2143 C.ar    1  UNL1        0.1785
     10 N         141.5389  141.7765  158.9064 N.ar    1  UNL1       -0.2282
     11 C         144.2084  143.4183  161.9200 C.3     1  UNL1        0.1339
     12 C         144.6280  143.6312  163.3443 C.2     1  UNL1       -0.0026
     13 C         144.5337  143.4971  164.8353 C.2     1  UNL1        0.0180
     14 C         143.9416  143.0393  166.1352 C.3     1  UNL1        0.2315
     15 O         142.9542  142.3368  167.0193 O.3     1  UNL1       -0.4707
     16 C         141.7422  141.5113  167.3346 C.ar    1  UNL1        0.1393
     17 C         141.0093  140.9624  168.5695 C.ar    1  UNL1        0.0378
     18 C         139.7732  140.1281  168.7300 C.ar    1  UNL1        0.0147
     19 C         139.0111  139.6761  167.5196 C.ar    1  UNL1        0.0622
     20 CL        137.7749  138.8417  167.6801 Cl      1  UNL1       -0.0821
     21 C         139.4852  140.0584  166.1489 C.ar    1  UNL1        0.0669
     22 C         140.5151  140.7053  167.0268 C.ar    1  UNL1        0.0423
     23 H         137.8480  139.1008  163.2622 H       1  UNL1        0.1500
     24 C         137.9174  139.2459  161.1898 C.2     1  UNL1        0.0686
     25 O         137.3593  137.9551  161.7117 O.co2   1  UNL1       -0.5475
     26 OXT       137.3775  139.8380  159.9217 O.co2   1  UNL1       -0.5475
@<TRIPOS>UNITY_ATOM_ATTR
25 1
charge -1
@<TRIPOS>BOND
     1     1     2    2
     2     2     3   am
     3     3     4    1
     4     4    24    1
     5    24    25   ar
     6    24    26   ar
     7     4     5    1
     8     5     6    1
     9     6     7   ar
    10     7     8   ar
    11     8     9   ar
    12     9    10   ar
    13     8    11    1
    14    11    12    1
    15    12    13    2
    16    13    14    1
    17    14    15    1
    18    15    16    1
    19    16    17   ar
    20    17    18   ar
    21    18    19   ar
    22    19    20    1
    23    19    21   ar
    24    21    22   ar
    25    21     2    1
    26    10     6   ar
    27    22    16   ar
    28     3    23    1
@<TRIPOS>MOLECULE
*****
 26 28 0 0 0
SMALL
GASTEIGER

@<TRIPOS>ATOM
      1 O         137.6128  139.1966  162.0469 O.2     1  UNL1       -0.2701
      2 C         138.7509  139.9502  162.6688 C.2     1  UNL1        0.2470
      3 N         138.7425  139.4243  164.0736 N.am    1  UNL1       -0.2972
      4 CA        139.2087  139.3026  165.4941 C.3     1  UNL1        0.1143
      5 C         140.0691  139.6063  166.6847 C.3     1  UNL1        0.0727
      6 C         141.1749  140.2829  167.4395 C.ar    1  UNL1        0.0799
      7 C         141.8666  141.2269  166.5013 C.ar    1  UNL1        0.0923
      8 N         142.9723  141.9033  167.2561 N.ar    1  UNL1       -0.3039
      9 C         142.9639  141.3775  168.6609 C.ar    1  UNL1        0.1785
     10 N         141.8530  140.3759  168.7743 N.ar    1  UNL1       -0.2282
     11 C         144.0398  143.1861  166.2795 C.3     1  UNL1        0.1339
     12 C         144.2904  143.8839  164.9756 C.2     1  UNL1       -0.0026
     13 C         144.0564  144.2149  163.5314 C.2     1  UNL1        0.0180
     14 C         143.3782  144.1219  162.1967 C.3     1  UNL1        0.2315
     15 O         142.3732  143.6208  161.2023 O.3     1  UNL1       -0.4707
     16 C         141.2152  142.7984  160.7200 C.ar    1  UNL1        0.1393
     17 C         140.4125  142.5825  159.4268 C.ar    1  UNL1        0.0378
     18 C         139.2472  141.7003  159.0896 C.ar    1  UNL1        0.0147
     19 C         138.6573  140.8037  160.1375 C.ar    1  UNL1        0.0622
     20 CL        137.4919  139.9215  159.8003 Cl      1  UNL1       -0.0821
     21 C         139.2326  140.7894  161.5227 C.ar    1  UNL1        0.0669
     22 C         140.1043  141.7969  160.8334 C.ar    1  UNL1        0.0423
     23 H         137.9932  138.7862  164.0488 H       1  UNL1        0.1500
     24 C         138.2611  138.2799  166.0469 C.2     1  UNL1        0.0686
     25 O         137.2553  138.6743  167.0875 O.co2   1  UNL1       -0.5475
     26 OXT       138.3190  136.8625  165.5592 O.co2   1  UNL1       -0.5475
@<TRIPOS>UNITY_ATOM_ATTR
25 1
charge -1
@<TRIPOS>BOND
     1     1     2    2
     2     2     3   am
     3     3     4    1
     4     4    24    1
     5    24    25   ar
     6    24    26   ar
     7     4     5    1
     8     5     6    1
     9     6     7   ar
    10     7     8   ar
    11     8     9   ar
    12     9    10   ar
    13     8    11    1
    14    11    12    1
    15    12    13    2
    16    13    14    1
    17    14    15    1
    18    15    16    1
    19    16    17   ar
    20    17    18   ar
    21    18    19   ar
    22    19    20    1
    23    19    21   ar
    24    21    22   ar
    25    21     2    1
    26    10     6   ar
    27    22    16   ar
    28     3    23    1
@<TRIPOS>MOLECULE
*****
 26 28 0 0 0
SMALL
GASTEIGER

@<TRIPOS>ATOM
      1 O         144.5481  142.9728  161.1009 O.2     1  UNL1       -0.2701
      2 C         143.5514  142.2050  161.9177 C.2     1  UNL1        0.2470
      3 N         143.6562  142.8801  163.2531 N.am    1  UNL1       -0.2972
      4 CA        143.3286  143.1192  164.6972 C.3     1  UNL1        0.1143
      5 C         142.6250  142.8810  166.0003 C.3     1  UNL1        0.0727
      6 C         141.6670  142.2066  166.9371 C.ar    1  UNL1        0.0799
      7 C         140.9701  141.1147  166.1807 C.ar    1  UNL1        0.0923
      8 N         140.0122  140.4404  167.1176 N.ar    1  UNL1       -0.3039
      9 C         140.1171  141.1155  168.4530 C.ar    1  UNL1        0.1785
     10 N         141.1398  142.2071  168.3415 N.ar    1  UNL1       -0.2282
     11 C         138.9694  138.9793  166.3989 C.3     1  UNL1        0.1339
     12 C         138.6503  138.1259  165.2073 C.2     1  UNL1       -0.0026
     13 C         138.7642  137.6586  163.7865 C.2     1  UNL1        0.0180
     14 C         139.2913  137.6581  162.3822 C.3     1  UNL1        0.2315
     15 O         140.1407  138.1246  161.2372 O.3     1  UNL1       -0.4707
     16 C         141.1653  138.9774  160.5495 C.ar    1  UNL1        0.1393
     17 C         141.8091  139.1129  159.1601 C.ar    1  UNL1        0.0378
     18 C         142.8504  140.0413  158.6090 C.ar    1  UNL1        0.0147
     19 C         143.4618  141.0902  159.4899 C.ar    1  UNL1        0.0622
     20 CL        144.5031  142.0186  158.9388 Cl      1  UNL1       -0.0821
     21 C         143.0320  141.2106  160.9220 C.ar    1  UNL1        0.0669
     22 C         142.1880  140.0690  160.4380 C.ar    1  UNL1        0.0423
     23 H         144.3390  143.5682  163.0815 H       1  UNL1        0.1500
     24 C         144.2326  144.2671  165.0362 C.2     1  UNL1        0.0686
     25 O         145.2788  144.1092  166.0995 O.co2   1  UNL1       -0.5475
     26 OXT       144.0905  145.5730  164.3119 O.co2   1  UNL1       -0.5475
@<TRIPOS>UNITY_ATOM_ATTR
25 1
charge -1
@<TRIPOS>BOND
     1     1     2    2
     2     2     3   am
     3     3     4    1
     4     4    24    1
     5    24    25   ar
     6    24    26   ar
     7     4     5    1
     8     5     6    1
     9     6     7   ar
    10     7     8   ar
    11     8     9   ar
    12     9    10   ar
    13     8    11    1
    14    11    12    1
    15    12    13    2
    16    13    14    1
    17    14    15    1
    18    15    16    1
    19    16    17   ar
    20    17    18   ar
    21    18    19   ar
    22    19    20    1
    23    19    21   ar
    24    21    22   ar
    25    21     2    1
    26    10     6   ar
    27    22    16   ar
    28     3    23    1
@<TRIPOS>MOLECULE
*****
 26 28 0 0 0
SMALL
GASTEIGER

@<TRIPOS>ATOM
      1 O         140.0336  142.2190  166.5111 O.2     1  UNL1       -0.2701
      2 C         140.3938  141.7374  165.1369 C.2     1  UNL1        0.2470
      3 N         139.5321  142.6038  164.2670 N.am    1  UNL1       -0.2972
      4 CA        138.9690  143.1202  162.9761 C.3     1  UNL1        0.1143
      5 C         138.8021  143.1972  161.4875 C.3     1  UNL1        0.0727
      6 C         139.0602  142.8216  160.0583 C.ar    1  UNL1        0.0799
      7 C         140.0815  141.7230  160.0450 C.ar    1  UNL1        0.0923
      8 N         140.3395  141.3474  158.6159 N.ar    1  UNL1       -0.3039
      9 C         139.4778  142.2138  157.7460 C.ar    1  UNL1        0.1785
     10 N         138.6871  143.1249  158.6375 N.ar    1  UNL1       -0.2282
     11 C         141.6283  139.9407  158.3010 C.3     1  UNL1        0.1339
     12 C         142.5858  138.9526  158.8982 C.2     1  UNL1       -0.0026
     13 C         143.3141  138.2457  160.0028 C.2     1  UNL1        0.0180
     14 C         143.6873  137.9424  161.4236 C.3     1  UNL1        0.2315
     15 O         143.6406  138.0950  162.9151 O.3     1  UNL1       -0.4707
     16 C         143.1824  138.6772  164.2193 C.ar    1  UNL1        0.1393
     17 C         143.4493  138.4937  165.7220 C.ar    1  UNL1        0.0378
     18 C         142.8979  139.1702  166.9420 C.ar    1  UNL1        0.0147
     19 C         141.8760  140.2587  166.7987 C.ar    1  UNL1        0.0622
     20 CL        141.3246  140.9352  168.0186 Cl      1  UNL1       -0.0821
     21 C         141.4053  140.6708  165.4353 C.ar    1  UNL1        0.0669
     22 C         142.3917  139.5883  165.1108 C.ar    1  UNL1        0.0423
     23 H         139.0605  143.1563  164.9315 H       1  UNL1        0.1500
     24 C         138.0165  144.1767  163.4518 C.2     1  UNL1        0.0686
     25 O         137.5544  144.1824  164.8788 O.co2   1  UNL1       -0.5475
     26 OXT       137.5258  145.2276  162.5004 O.co2   1  UNL1       -0.5475
@<TRIPOS>UNITY_ATOM_ATTR
25 1
charge -1
@<TRIPOS>BOND
     1     1     2    2
     2     2     3   am
     3     3     4    1
     4     4    24    1
     5    24    25   ar
     6    24    26   ar
     7     4     5    1
     8     5     6    1
     9     6     7   ar
    10     7     8   ar
    11     8     9   ar
    12     9    10   ar
    13     8    11    1
    14    11    12    1
    15    12    13    2
    16    13    14    1
    17    14    15    1
    18    15    16    1
    19    16    17   ar
    20    17    18   ar
    21    18    19   ar
    22    19    20    1
    23    19    21   ar
    24    21    22   ar
    25    21     2    1
    26    10     6   ar
    27    22    16   ar
    28     3    23    1
