@<TRIPOS>MOLECULE
*****
 21 22 0 0 0
SMALL
GASTEIGER

@<TRIPOS>ATOM
      1 C         140.0171  139.6909  166.5502 C.2     1  UNL1        0.2254
      2 O         140.1441  140.4156  167.8574 O.2     1  UNL1       -0.2749
      3 N         141.2476  139.3022  165.7855 N.am    1  UNL1       -0.2756
      4 C         141.1205  138.5774  164.4783 C.3     1  UNL1        0.0927
      5 C         140.9658  139.2139  163.1288 C.3     1  UNL1        0.0383
      6 C         140.8755  138.1188  162.1076 C.3     1  UNL1        0.0704
      7 N         140.9743  136.8057  162.8260 N.3     1  UNL1       -0.2960
      8 C         141.1258  137.0892  164.2912 C.3     1  UNL1        0.0887
      9 H         141.7848  136.2866  162.4883 H       1  UNL1        0.1233
     10 C         137.9414  138.1294  166.4903 C.3     1  UNL1        0.0096
     11 C         138.6595  139.3548  166.0078 C.3     1  UNL1        0.0767
     12 C         138.0201  140.2441  164.9830 C.3     1  UNL1        0.0096
     13 C         142.6051  139.6382  166.3278 C.3     1  UNL1        0.1210
     14 C         143.5407  140.4961  165.5287 C.ar    1  UNL1        0.0091
     15 C         144.5889  139.8596  164.6648 C.ar    1  UNL1       -0.0017
     16 C         145.5245  140.7174  163.8657 C.ar    1  UNL1        0.0007
     17 C         145.4120  142.2117  163.9303 C.ar    1  UNL1        0.0122
     18 C         144.3639  142.8483  164.7942 C.ar    1  UNL1        0.0679
     19 CL        144.2514  144.3427  164.8588 Cl      1  UNL1       -0.0814
     20 C         143.4283  141.9905  165.5933 C.ar    1  UNL1        0.0658
     21 CL        142.3801  142.6270  166.4572 Cl      1  UNL1       -0.0816
@<TRIPOS>BOND
     1    10    11    1
     2    11    12    1
     3    11     1    1
     4     1     2    2
     5     1     3   am
     6     3    13    1
     7    13    14    1
     8    14    15   ar
     9    15    16   ar
    10    16    17   ar
    11    17    18   ar
    12    18    19    1
    13    18    20   ar
    14    20    21    1
    15     4     3    1
    16     4     5    1
    17     5     6    1
    18     6     7    1
    19     7     8    1
    20    20    14   ar
    21     8     4    1
    22     7     9    1
@<TRIPOS>MOLECULE
*****
 21 22 0 0 0
SMALL
GASTEIGER

@<TRIPOS>ATOM
      1 C         139.0130  140.6323  165.8073 C.2     1  UNL1        0.2254
      2 O         138.1323  141.4102  164.8749 O.2     1  UNL1       -0.2749
      3 N         140.0626  141.3395  166.6124 N.am    1  UNL1       -0.2756
      4 C         140.9433  140.5615  167.5448 C.3     1  UNL1        0.0927
      5 C         140.6492  140.2522  168.9828 C.3     1  UNL1        0.0383
      6 C         141.7968  139.4558  169.5297 C.3     1  UNL1        0.0704
      7 N         142.8001  139.2731  168.4295 N.3     1  UNL1       -0.2960
      8 C         142.2725  139.9565  167.2029 C.3     1  UNL1        0.0887
      9 H         142.9315  138.2790  168.2425 H       1  UNL1        0.1233
     10 C         139.6735  138.2233  165.0928 C.3     1  UNL1        0.0096
     11 C         138.8441  139.1473  165.9345 C.3     1  UNL1        0.0767
     12 C         137.8458  138.5862  166.9032 C.3     1  UNL1        0.0096
     13 C         140.2315  142.8245  166.4853 C.3     1  UNL1        0.1210
     14 C         140.9459  143.3991  165.2981 C.ar    1  UNL1        0.0091
     15 C         142.3542  142.9805  164.9953 C.ar    1  UNL1       -0.0017
     16 C         143.0686  143.5551  163.8082 C.ar    1  UNL1        0.0007
     17 C         142.3749  144.5484  162.9238 C.ar    1  UNL1        0.0122
     18 C         140.9666  144.9670  163.2266 C.ar    1  UNL1        0.0679
     19 CL        140.2729  145.9603  162.3422 Cl      1  UNL1       -0.0814
     20 C         140.2522  144.3924  164.4137 C.ar    1  UNL1        0.0658
     21 CL        138.8439  144.8110  164.7165 Cl      1  UNL1       -0.0816
@<TRIPOS>BOND
     1    10    11    1
     2    11    12    1
     3    11     1    1
     4     1     2    2
     5     1     3   am
     6     3    13    1
     7    13    14    1
     8    14    15   ar
     9    15    16   ar
    10    16    17   ar
    11    17    18   ar
    12    18    19    1
    13    18    20   ar
    14    20    21    1
    15     4     3    1
    16     4     5    1
    17     5     6    1
    18     6     7    1
    19     7     8    1
    20    20    14   ar
    21     8     4    1
    22     7     9    1
@<TRIPOS>MOLECULE
*****
 21 22 0 0 0
SMALL
GASTEIGER

@<TRIPOS>ATOM
      1 C         139.8831  140.0248  168.7600 C.2     1  UNL1        0.2254
      2 O         138.6434  139.8020  169.5745 O.2     1  UNL1       -0.2749
      3 N         139.8449  139.8446  167.2714 N.am    1  UNL1       -0.2756
      4 C         141.0848  140.0674  166.4569 C.3     1  UNL1        0.0927
      5 C         142.1247  139.0357  166.1342 C.3     1  UNL1        0.0383
      6 C         143.1850  139.6916  165.3000 C.3     1  UNL1        0.0704
      7 N         142.8002  141.1286  165.1072 N.3     1  UNL1       -0.2960
      8 C         141.5022  141.3608  165.8222 C.3     1  UNL1        0.0887
      9 H         142.6879  141.3264  164.1129 H       1  UNL1        0.1233
     10 C         142.1195  139.3779  169.9134 C.3     1  UNL1        0.0096
     11 C         141.1611  140.4276  169.4342 C.3     1  UNL1        0.0767
     12 C         141.4807  141.8801  169.6292 C.3     1  UNL1        0.0096
     13 C         138.5670  139.4418  166.5972 C.3     1  UNL1        0.1210
     14 C         138.5460  139.1904  165.1185 C.ar    1  UNL1        0.0091
     15 C         138.8726  137.8272  164.5848 C.ar    1  UNL1       -0.0017
     16 C         138.8516  137.5757  163.1062 C.ar    1  UNL1        0.0007
     17 C         138.5040  138.6876  162.1613 C.ar    1  UNL1        0.0122
     18 C         138.1774  140.0509  162.6950 C.ar    1  UNL1        0.0679
     19 CL        137.8298  141.1628  161.7500 Cl      1  UNL1       -0.0814
     20 C         138.1984  140.3023  164.1736 C.ar    1  UNL1        0.0658
     21 CL        137.8718  141.6655  164.7073 Cl      1  UNL1       -0.0816
@<TRIPOS>BOND
     1    10    11    1
     2    11    12    1
     3    11     1    1
     4     1     2    2
     5     1     3   am
     6     3    13    1
     7    13    14    1
     8    14    15   ar
     9    15    16   ar
    10    16    17   ar
    11    17    18   ar
    12    18    19    1
    13    18    20   ar
    14    20    21    1
    15     4     3    1
    16     4     5    1
    17     5     6    1
    18     6     7    1
    19     7     8    1
    20    20    14   ar
    21     8     4    1
    22     7     9    1
@<TRIPOS>MOLECULE
*****
 21 22 0 0 0
SMALL
GASTEIGER

@<TRIPOS>ATOM
      1 C         142.0833  140.3480  165.5213 C.2     1  UNL1        0.2254
      2 O         140.9891  140.2824  166.5452 O.2     1  UNL1       -0.2749
      3 N         142.5053  141.6727  164.9584 N.am    1  UNL1       -0.2756
      4 C         143.5996  141.7382  163.9344 C.3     1  UNL1        0.0927
      5 C         143.4179  141.6962  162.4461 C.3     1  UNL1        0.0383
      6 C         144.7736  141.7892  161.8108 C.3     1  UNL1        0.0704
      7 N         145.7931  141.8888  162.9067 N.3     1  UNL1       -0.2960
      8 C         145.0675  141.8572  164.2191 C.3     1  UNL1        0.0887
      9 H         146.3116  142.7627  162.8187 H       1  UNL1        0.1233
     10 C         143.9199  138.5360  165.8276 C.3     1  UNL1        0.0096
     11 C         142.7555  139.0887  165.0603 C.3     1  UNL1        0.0767
     12 C         142.2634  138.3822  163.8321 C.3     1  UNL1        0.0096
     13 C         141.8332  142.9320  165.4193 C.3     1  UNL1        0.1210
     14 C         140.6555  143.4732  164.6641 C.ar    1  UNL1        0.0091
     15 C         139.2912  142.8898  164.8837 C.ar    1  UNL1       -0.0017
     16 C         138.1136  143.4310  164.1285 C.ar    1  UNL1        0.0007
     17 C         138.3004  144.5557  163.1538 C.ar    1  UNL1        0.0122
     18 C         139.6647  145.1391  162.9342 C.ar    1  UNL1        0.0679
     19 CL        139.8514  146.2639  161.9593 Cl      1  UNL1       -0.0814
     20 C         140.8423  144.5979  163.6893 C.ar    1  UNL1        0.0658
     21 CL        142.2066  145.1813  163.4697 Cl      1  UNL1       -0.0816
@<TRIPOS>BOND
     1    10    11    1
     2    11    12    1
     3    11     1    1
     4     1     2    2
     5     1     3   am
     6     3    13    1
     7    13    14    1
     8    14    15   ar
     9    15    16   ar
    10    16    17   ar
    11    17    18   ar
    12    18    19    1
    13    18    20   ar
    14    20    21    1
    15     4     3    1
    16     4     5    1
    17     5     6    1
    18     6     7    1
    19     7     8    1
    20    20    14   ar
    21     8     4    1
    22     7     9    1
@<TRIPOS>MOLECULE
*****
 21 22 0 0 0
SMALL
GASTEIGER

@<TRIPOS>ATOM
      1 C         142.6499  140.1047  168.5315 C.2     1  UNL1        0.2254
      2 O         142.9405  138.9078  169.3877 O.2     1  UNL1       -0.2749
      3 N         142.7760  140.0083  167.0399 N.am    1  UNL1       -0.2756
      4 C         142.4854  141.2052  166.1837 C.3     1  UNL1        0.0927
      5 C         143.4765  142.2492  165.7622 C.3     1  UNL1        0.0383
      6 C         142.7563  143.2575  164.9167 C.3     1  UNL1        0.0704
      7 N         141.3200  142.8365  164.8158 N.3     1  UNL1       -0.2960
      8 C         141.1527  141.5681  165.5988 C.3     1  UNL1        0.0887
      9 H         141.0744  142.6752  163.8390 H       1  UNL1        0.1233
     10 C         143.2713  142.3945  169.5902 C.3     1  UNL1        0.0096
     11 C         142.2331  141.3980  169.1669 C.3     1  UNL1        0.0767
     12 C         140.7781  141.6948  169.3790 C.3     1  UNL1        0.0096
     13 C         143.1928  138.7150  166.4045 C.3     1  UNL1        0.1210
     14 C         142.7485  138.3872  165.0098 C.ar    1  UNL1        0.0091
     15 C         141.4228  137.7235  164.7815 C.ar    1  UNL1       -0.0017
     16 C         140.9784  137.3957  163.3869 C.ar    1  UNL1        0.0007
     17 C         141.8598  137.7314  162.2206 C.ar    1  UNL1        0.0122
     18 C         143.1855  138.3950  162.4488 C.ar    1  UNL1        0.0679
     19 CL        144.0669  138.7308  161.2824 Cl      1  UNL1       -0.0814
     20 C         143.6299  138.7229  163.8435 C.ar    1  UNL1        0.0658
     21 CL        144.9556  139.3865  164.0718 Cl      1  UNL1       -0.0816
@<TRIPOS>BOND
     1    10    11    1
     2    11    12    1
     3    11     1    1
     4     1     2    2
     5     1     3   am
     6     3    13    1
     7    13    14    1
     8    14    15   ar
     9    15    16   ar
    10    16    17   ar
    11    17    18   ar
    12    18    19    1
    13    18    20   ar
    14    20    21    1
    15     4     3    1
    16     4     5    1
    17     5     6    1
    18     6     7    1
    19     7     8    1
    20    20    14   ar
    21     8     4    1
    22     7     9    1
@<TRIPOS>MOLECULE
*****
 21 22 0 0 0
SMALL
GASTEIGER

@<TRIPOS>ATOM
      1 C         142.7510  140.3327  165.4539 C.2     1  UNL1        0.2254
      2 O         143.8685  141.2514  165.0575 O.2     1  UNL1       -0.2749
      3 N         141.4547  140.3597  164.6997 N.am    1  UNL1       -0.2756
      4 C         140.3371  139.4410  165.0961 C.3     1  UNL1        0.0927
      5 C         139.2416  139.7551  166.0715 C.3     1  UNL1        0.0383
      6 C         138.3462  138.5552  166.1650 C.3     1  UNL1        0.0704
      7 N         138.8884  137.4996  165.2473 N.3     1  UNL1       -0.2960
      8 C         140.1188  138.0472  164.5868 C.3     1  UNL1        0.0887
      9 H         138.1917  137.2643  164.5405 H       1  UNL1        0.1233
     10 C         142.4588  139.7755  167.9746 C.3     1  UNL1        0.0096
     11 C         142.9297  139.3870  166.6045 C.3     1  UNL1        0.0767
     12 C         143.5794  138.0530  166.3849 C.3     1  UNL1        0.0096
     13 C         141.2759  141.3054  163.5491 C.3     1  UNL1        0.1210
     14 C         140.0822  142.2127  163.5025 C.ar    1  UNL1        0.0091
     15 C         139.1224  142.1308  162.3528 C.ar    1  UNL1       -0.0017
     16 C         137.9288  143.0380  162.3061 C.ar    1  UNL1        0.0007
     17 C         137.6951  144.0272  163.4092 C.ar    1  UNL1        0.0122
     18 C         138.6550  144.1091  164.5589 C.ar    1  UNL1        0.0679
     19 CL        138.4212  145.0984  165.6621 Cl      1  UNL1       -0.0814
     20 C         139.8485  143.2019  164.6056 C.ar    1  UNL1        0.0658
     21 CL        140.8084  143.2838  165.7554 Cl      1  UNL1       -0.0816
@<TRIPOS>BOND
     1    10    11    1
     2    11    12    1
     3    11     1    1
     4     1     2    2
     5     1     3   am
     6     3    13    1
     7    13    14    1
     8    14    15   ar
     9    15    16   ar
    10    16    17   ar
    11    17    18   ar
    12    18    19    1
    13    18    20   ar
    14    20    21    1
    15     4     3    1
    16     4     5    1
    17     5     6    1
    18     6     7    1
    19     7     8    1
    20    20    14   ar
    21     8     4    1
    22     7     9    1
@<TRIPOS>MOLECULE
*****
 21 22 0 0 0
SMALL
GASTEIGER

@<TRIPOS>ATOM
      1 C         141.7102  140.2965  168.2722 C.2     1  UNL1        0.2254
      2 O         142.9582  139.9585  169.0324 O.2     1  UNL1       -0.2749
      3 N         141.4679  139.6916  166.9211 N.am    1  UNL1       -0.2756
      4 C         140.2198  140.0297  166.1608 C.3     1  UNL1        0.0927
      5 C         140.0516  141.1749  165.2068 C.3     1  UNL1        0.0383
      6 C         138.6486  141.1350  164.6774 C.3     1  UNL1        0.0704
      7 N         137.9498  139.9651  165.3044 N.3     1  UNL1       -0.2960
      8 C         138.9208  139.2820  166.2212 C.3     1  UNL1        0.0887
      9 H         137.6428  139.3162  164.5797 H       1  UNL1        0.1233
     10 C         139.5646  140.7057  169.6790 C.3     1  UNL1        0.0096
     11 C         140.7043  141.2396  168.8629 C.3     1  UNL1        0.0767
     12 C         140.8382  142.7165  168.6376 C.3     1  UNL1        0.0096
     13 C         142.4737  138.7485  166.3303 C.3     1  UNL1        0.1210
     14 C         142.9965  138.9818  164.9438 C.ar    1  UNL1        0.0091
     15 C         144.1060  139.9652  164.7162 C.ar    1  UNL1       -0.0017
     16 C         144.6289  140.1985  163.3298 C.ar    1  UNL1        0.0007
     17 C         144.0422  139.4483  162.1710 C.ar    1  UNL1        0.0122
     18 C         142.9327  138.4648  162.3986 C.ar    1  UNL1        0.0679
     19 CL        142.3460  137.7146  161.2396 Cl      1  UNL1       -0.0814
     20 C         142.4098  138.2316  163.7850 C.ar    1  UNL1        0.0658
     21 CL        141.3003  137.2481  164.0126 Cl      1  UNL1       -0.0816
@<TRIPOS>BOND
     1    10    11    1
     2    11    12    1
     3    11     1    1
     4     1     2    2
     5     1     3   am
     6     3    13    1
     7    13    14    1
     8    14    15   ar
     9    15    16   ar
    10    16    17   ar
    11    17    18   ar
    12    18    19    1
    13    18    20   ar
    14    20    21    1
    15     4     3    1
    16     4     5    1
    17     5     6    1
    18     6     7    1
    19     7     8    1
    20    20    14   ar
    21     8     4    1
    22     7     9    1
@<TRIPOS>MOLECULE
*****
 21 22 0 0 0
SMALL
GASTEIGER

@<TRIPOS>ATOM
      1 C         140.3340  139.9549  168.2204 C.2     1  UNL1        0.2254
      2 O         139.1043  139.9266  169.0789 O.2     1  UNL1       -0.2749
      3 N         140.2385  139.6176  166.7620 N.am    1  UNL1       -0.2756
      4 C         141.4682  139.6459  165.9035 C.3     1  UNL1        0.0927
      5 C         142.3830  138.4878  165.6352 C.3     1  UNL1        0.0383
      6 C         143.4793  138.9634  164.7285 C.3     1  UNL1        0.0704
      7 N         143.2420  140.4155  164.4364 N.3     1  UNL1       -0.2960
      8 C         141.9991  140.8373  165.1626 C.3     1  UNL1        0.0887
      9 H         143.1195  140.5512  163.4330 H       1  UNL1        0.1233
     10 C         142.1362  141.7420  168.7761 C.3     1  UNL1        0.0096
     11 C         141.6594  140.3205  168.8204 C.3     1  UNL1        0.0767
     12 C         142.5078  139.2646  169.4647 C.3     1  UNL1        0.0096
     13 C         138.9132  139.2521  166.1620 C.3     1  UNL1        0.1210
     14 C         138.4904  139.8535  164.8544 C.ar    1  UNL1        0.0091
     15 C         138.0534  141.2872  164.7948 C.ar    1  UNL1       -0.0017
     16 C         137.6306  141.8886  163.4874 C.ar    1  UNL1        0.0007
     17 C         137.6447  141.0563  162.2396 C.ar    1  UNL1        0.0122
     18 C         138.0817  139.6226  162.2992 C.ar    1  UNL1        0.0679
     19 CL        138.0958  138.7904  161.0513 Cl      1  UNL1       -0.0814
     20 C         138.5045  139.0212  163.6066 C.ar    1  UNL1        0.0658
     21 CL        138.9415  137.5875  163.6663 Cl      1  UNL1       -0.0816
@<TRIPOS>BOND
     1    10    11    1
     2    11    12    1
     3    11     1    1
     4     1     2    2
     5     1     3   am
     6     3    13    1
     7    13    14    1
     8    14    15   ar
     9    15    16   ar
    10    16    17   ar
    11    17    18   ar
    12    18    19    1
    13    18    20   ar
    14    20    21    1
    15     4     3    1
    16     4     5    1
    17     5     6    1
    18     6     7    1
    19     7     8    1
    20    20    14   ar
    21     8     4    1
    22     7     9    1
@<TRIPOS>MOLECULE
*****
 21 22 0 0 0
SMALL
GASTEIGER

@<TRIPOS>ATOM
      1 C         140.7005  141.8481  167.9874 C.2     1  UNL1        0.2254
      2 O         140.4274  143.2151  168.5411 O.2     1  UNL1       -0.2749
      3 N         141.2042  141.6947  166.5828 N.am    1  UNL1       -0.2756
      4 C         141.4773  140.3276  166.0291 C.3     1  UNL1        0.0927
      5 C         140.4755  139.4280  165.3680 C.3     1  UNL1        0.0383
      6 C         141.1791  138.1645  164.9695 C.3     1  UNL1        0.0704
      7 N         142.6158  138.2834  165.3845 N.3     1  UNL1       -0.2960
      8 C         142.8000  139.6203  166.0393 C.3     1  UNL1        0.0887
      9 H         143.2196  138.2130  164.5654 H       1  UNL1        0.1233
     10 C         141.6073  140.0309  169.6077 C.3     1  UNL1        0.0096
     11 C         140.4700  140.6344  168.8382 C.3     1  UNL1        0.0767
     12 C         139.1021  140.0243  168.9196 C.3     1  UNL1        0.0096
     13 C         141.4347  142.9083  165.7320 C.3     1  UNL1        0.1210
     14 C         140.3321  143.4346  164.8616 C.ar    1  UNL1        0.0091
     15 C         138.9558  142.8459  164.9566 C.ar    1  UNL1       -0.0017
     16 C         137.8532  143.3721  164.0863 C.ar    1  UNL1        0.0007
     17 C         138.1271  144.4871  163.1211 C.ar    1  UNL1        0.0122
     18 C         139.5034  145.0758  163.0261 C.ar    1  UNL1        0.0679
     19 CL        139.7772  146.1909  162.0608 Cl      1  UNL1       -0.0814
     20 C         140.6059  144.5496  163.8964 C.ar    1  UNL1        0.0658
     21 CL        141.9823  145.1384  163.8014 Cl      1  UNL1       -0.0816
@<TRIPOS>BOND
     1    10    11    1
     2    11    12    1
     3    11     1    1
     4     1     2    2
     5     1     3   am
     6     3    13    1
     7    13    14    1
     8    14    15   ar
     9    15    16   ar
    10    16    17   ar
    11    17    18   ar
    12    18    19    1
    13    18    20   ar
    14    20    21    1
    15     4     3    1
    16     4     5    1
    17     5     6    1
    18     6     7    1
    19     7     8    1
    20    20    14   ar
    21     8     4    1
    22     7     9    1
