@<TRIPOS>MOLECULE
*****
 33 37 0 0 0
SMALL
GASTEIGER

@<TRIPOS>ATOM
      1 C         142.9944  139.0229  159.0635 C.3     1  UNL1        0.0230
      2 C         143.4488  138.7066  160.4576 C.3     1  UNL1        0.0233
      3 C         143.9793  138.6945  161.8606 C.3     1  UNL1        0.0935
      4 N         144.4385  140.0829  162.1946 N.am    1  UNL1       -0.2795
      5 C         145.0390  140.5237  163.4965 C.2     1  UNL1        0.2260
      6 O         145.2256  139.5352  164.6093 O.2     1  UNL1       -0.2749
      7 C         144.1918  140.9531  160.9980 C.3     1  UNL1        0.0935
      8 C         143.5801  140.1025  159.9245 C.3     1  UNL1        0.0233
      9 C         142.3939  138.5821  157.7616 C.3     1  UNL1        0.0898
     10 O         144.2400  136.9837  156.0189 O.2     1  UNL1       -0.2702
     11 C         143.0444  136.3285  156.6442 C.2     1  UNL1        0.2456
     12 N         142.1213  137.1277  157.5156 N.am    1  UNL1       -0.3009
     13 H         141.3366  136.6976  157.9261 H       1  UNL1        0.1497
     14 C         142.7718  134.8741  156.3982 C.2     1  UNL1        0.0525
     15 C         141.7222  134.4648  155.4080 C.2     1  UNL1       -0.0153
     16 C         141.4497  133.0104  155.1620 C.3     1  UNL1        0.0726
     17 C         142.2267  131.9654  155.9063 C.2     1  UNL1        0.0933
     18 N         142.1794  130.4664  155.8739 N.am    1  UNL1       -0.1431
     19 C         143.1998  129.9494  156.8442 C.2     1  UNL1        0.4298
     20 O         143.4911  128.5063  157.1320 O.2     1  UNL1       -0.2238
     21 O         143.8777  131.1288  157.4763 O.3     1  UNL1       -0.4079
     22 C         143.2764  132.3747  156.8966 C.2     1  UNL1        0.1618
     23 C         143.5489  133.8291  157.1426 C.2     1  UNL1        0.0429
     24 C         145.4530  141.9529  163.6858 C.3     1  UNL1        0.0899
     25 C         144.8798  142.7565  164.8153 C.3     1  UNL1        0.0360
     26 C         143.4242  143.1188  164.8148 C.ar    1  UNL1       -0.0200
     27 C         142.9084  144.1505  163.8557 C.ar    1  UNL1        0.0072
     28 C         141.4528  144.5128  163.8553 C.ar    1  UNL1        0.0582
     29 CL        140.9370  145.5444  162.8963 Cl      1  UNL1       -0.0822
     30 C         140.5130  143.8434  164.8138 C.ar    1  UNL1        0.0228
     31 C         141.0288  142.8118  165.7728 C.ar    1  UNL1        0.0582
     32 CL        140.0890  142.1425  166.7314 Cl      1  UNL1       -0.0822
     33 C         142.4844  142.4495  165.7733 C.ar    1  UNL1        0.0072
@<TRIPOS>BOND
     1    10    11    2
     2    11    12   am
     3    12     9    1
     4     1     9    1
     5     1     2    1
     6     2     3    1
     7     3     4    1
     8     4     5   am
     9     5     6    2
    10     5    24    1
    11    24    25    1
    12    25    26    1
    13    26    27   ar
    14    27    28   ar
    15    28    29    1
    16    28    30   ar
    17    30    31   ar
    18    31    32    1
    19    31    33   ar
    20     4     7    1
    21     8     7    1
    22    11    14    1
    23    14    15    2
    24    15    16    1
    25    16    17    1
    26    17    18    2
    27    18    19    1
    28    19    20    2
    29    19    21    1
    30    21    22    1
    31    22    23    2
    32     8     1    1
    33    23    14    1
    34     8     2    1
    35    22    17    1
    36    33    26   ar
    37    12    13    1
@<TRIPOS>MOLECULE
*****
 33 37 0 0 0
SMALL
GASTEIGER

@<TRIPOS>ATOM
      1 C         139.3098  138.8639  161.2881 C.3     1  UNL1        0.0230
      2 C         140.6535  138.9478  160.6267 C.3     1  UNL1        0.0233
      3 C         141.8438  138.9227  159.7143 C.3     1  UNL1        0.0935
      4 N         141.3915  138.4186  158.3759 N.am    1  UNL1       -0.2795
      5 C         142.2571  138.2334  157.1650 C.2     1  UNL1        0.2260
      6 O         143.7189  138.5640  157.2302 O.2     1  UNL1       -0.2749
      7 C         139.9216  138.1321  158.4611 C.3     1  UNL1        0.0935
      8 C         139.4655  138.4592  159.8522 C.3     1  UNL1        0.0233
      9 C         138.4442  139.0490  162.4990 C.3     1  UNL1        0.0898
     10 O         138.7908  137.9878  165.2836 O.2     1  UNL1       -0.2702
     11 C         139.0568  139.4354  164.9942 C.2     1  UNL1        0.2456
     12 N         138.8835  139.9660  163.6019 N.am    1  UNL1       -0.3009
     13 H         139.0582  140.9161  163.4120 H       1  UNL1        0.1497
     14 C         139.4961  140.3523  166.0971 C.2     1  UNL1        0.0525
     15 C         140.0256  141.7174  165.7713 C.2     1  UNL1       -0.0153
     16 C         140.4649  142.6343  166.8741 C.3     1  UNL1        0.0726
     17 C         140.3747  142.1860  168.3028 C.2     1  UNL1        0.0933
     18 N         140.7300  142.8653  169.5922 N.am    1  UNL1       -0.1431
     19 C         140.4201  141.9200  170.7148 C.2     1  UNL1        0.4298
     20 O         140.6217  142.1905  172.1764 O.2     1  UNL1       -0.2238
     21 O         139.8733  140.6565  170.1192 O.3     1  UNL1       -0.4079
     22 C         139.8452  140.8210  168.6285 C.2     1  UNL1        0.1618
     23 C         139.4059  139.9041  167.5257 C.2     1  UNL1        0.0429
     24 C         141.6611  137.7176  155.8888 C.3     1  UNL1        0.0899
     25 C         142.4075  136.7095  155.0661 C.3     1  UNL1        0.0360
     26 C         142.5177  135.2900  155.5383 C.ar    1  UNL1       -0.0200
     27 C         143.5561  134.9160  156.5542 C.ar    1  UNL1        0.0072
     28 C         143.6664  133.4965  157.0263 C.ar    1  UNL1        0.0582
     29 CL        144.7047  133.1224  158.0421 Cl      1  UNL1       -0.0822
     30 C         142.7382  132.4510  156.4825 C.ar    1  UNL1        0.0228
     31 C         141.6999  132.8250  155.4667 C.ar    1  UNL1        0.0582
     32 CL        140.7717  131.7796  154.9230 Cl      1  UNL1       -0.0822
     33 C         141.5896  134.2445  154.9946 C.ar    1  UNL1        0.0072
@<TRIPOS>BOND
     1    10    11    2
     2    11    12   am
     3    12     9    1
     4     1     9    1
     5     1     2    1
     6     2     3    1
     7     3     4    1
     8     4     5   am
     9     5     6    2
    10     5    24    1
    11    24    25    1
    12    25    26    1
    13    26    27   ar
    14    27    28   ar
    15    28    29    1
    16    28    30   ar
    17    30    31   ar
    18    31    32    1
    19    31    33   ar
    20     4     7    1
    21     8     7    1
    22    11    14    1
    23    14    15    2
    24    15    16    1
    25    16    17    1
    26    17    18    2
    27    18    19    1
    28    19    20    2
    29    19    21    1
    30    21    22    1
    31    22    23    2
    32     8     1    1
    33    23    14    1
    34     8     2    1
    35    22    17    1
    36    33    26   ar
    37    12    13    1
@<TRIPOS>MOLECULE
*****
 33 37 0 0 0
SMALL
GASTEIGER

@<TRIPOS>ATOM
      1 C         142.9692  138.4597  159.0814 C.3     1  UNL1        0.0230
      2 C         143.7057  139.2578  160.1162 C.3     1  UNL1        0.0233
      3 C         144.2914  139.8701  161.3539 C.3     1  UNL1        0.0935
      4 N         143.7244  139.1492  162.5408 N.am    1  UNL1       -0.2795
      5 C         144.0384  139.4358  163.9792 C.2     1  UNL1        0.2260
      6 O         145.0001  140.5314  164.3331 O.2     1  UNL1       -0.2749
      7 C         142.7882  138.0912  162.0366 C.3     1  UNL1        0.0935
      8 C         142.7767  138.1583  160.5381 C.3     1  UNL1        0.0233
      9 C         142.6552  138.1731  157.6430 C.3     1  UNL1        0.0898
     10 O         144.6876  137.1663  155.6794 O.2     1  UNL1       -0.2702
     11 C         143.6071  136.2518  156.1757 C.2     1  UNL1        0.2456
     12 N         142.5909  136.7552  157.1575 N.am    1  UNL1       -0.3009
     13 H         141.8817  136.1550  157.4832 H       1  UNL1        0.1497
     14 C         143.5428  134.8340  155.6902 C.2     1  UNL1        0.0525
     15 C         142.6563  134.4765  154.5342 C.2     1  UNL1       -0.0153
     16 C         142.5920  133.0588  154.0488 C.3     1  UNL1        0.0726
     17 C         143.4143  131.9984  154.7193 C.2     1  UNL1        0.0933
     18 N         143.5565  130.5272  154.4636 N.am    1  UNL1       -0.1431
     19 C         144.5310  129.9754  155.4616 C.2     1  UNL1        0.4298
     20 O         144.9686  128.5446  155.5685 O.2     1  UNL1       -0.2238
     21 O         144.9909  131.1056  156.3340 O.3     1  UNL1       -0.4079
     22 C         144.3008  132.3559  155.8752 C.2     1  UNL1        0.1618
     23 C         144.3651  133.7737  156.3607 C.2     1  UNL1        0.0429
     24 C         143.3909  138.6270  165.0639 C.3     1  UNL1        0.0899
     25 C         143.2722  139.1893  166.4495 C.3     1  UNL1        0.0360
     26 C         141.9180  139.4484  167.0403 C.ar    1  UNL1       -0.0200
     27 C         140.6960  139.3814  166.1728 C.ar    1  UNL1        0.0072
     28 C         139.3419  139.6405  166.7636 C.ar    1  UNL1        0.0582
     29 CL        138.1199  139.5735  165.8963 Cl      1  UNL1       -0.0822
     30 C         139.2097  139.9668  168.2218 C.ar    1  UNL1        0.0228
     31 C         140.4316  140.0339  169.0891 C.ar    1  UNL1        0.0582
     32 CL        140.2994  140.3601  170.5472 Cl      1  UNL1       -0.0822
     33 C         141.7858  139.7747  168.4983 C.ar    1  UNL1        0.0072
@<TRIPOS>BOND
     1    10    11    2
     2    11    12   am
     3    12     9    1
     4     1     9    1
     5     1     2    1
     6     2     3    1
     7     3     4    1
     8     4     5   am
     9     5     6    2
    10     5    24    1
    11    24    25    1
    12    25    26    1
    13    26    27   ar
    14    27    28   ar
    15    28    29    1
    16    28    30   ar
    17    30    31   ar
    18    31    32    1
    19    31    33   ar
    20     4     7    1
    21     8     7    1
    22    11    14    1
    23    14    15    2
    24    15    16    1
    25    16    17    1
    26    17    18    2
    27    18    19    1
    28    19    20    2
    29    19    21    1
    30    21    22    1
    31    22    23    2
    32     8     1    1
    33    23    14    1
    34     8     2    1
    35    22    17    1
    36    33    26   ar
    37    12    13    1
@<TRIPOS>MOLECULE
*****
 33 37 0 0 0
SMALL
GASTEIGER

@<TRIPOS>ATOM
      1 C         140.7338  143.9110  164.4346 C.3     1  UNL1        0.0230
      2 C         140.6577  143.1227  165.7085 C.3     1  UNL1        0.0233
      3 C         140.3964  142.1445  166.8152 C.3     1  UNL1        0.0935
      4 N         139.4945  141.0711  166.2817 N.am    1  UNL1       -0.2795
      5 C         138.9792  139.8902  167.0498 C.2     1  UNL1        0.2260
      6 O         139.3628  139.7057  168.4882 O.2     1  UNL1       -0.2749
      7 C         139.1984  141.3860  164.8454 C.3     1  UNL1        0.0935
      8 C         139.9173  142.6540  164.4911 C.3     1  UNL1        0.0233
      9 C         141.2491  145.0919  163.6665 C.3     1  UNL1        0.0898
     10 O         139.2468  145.6204  161.4959 O.2     1  UNL1       -0.2702
     11 C         140.6428  145.2007  161.1425 C.2     1  UNL1        0.2456
     12 N         141.6440  144.9365  162.2278 N.am    1  UNL1       -0.3009
     13 H         142.5602  144.6610  161.9958 H       1  UNL1        0.1497
     14 C         141.0377  145.0453  159.7037 C.2     1  UNL1        0.0525
     15 C         140.3567  145.8629  158.6466 C.2     1  UNL1       -0.0153
     16 C         140.7515  145.7075  157.2079 C.3     1  UNL1        0.0726
     17 C         141.8275  144.7344  156.8264 C.2     1  UNL1        0.0933
     18 N         142.4246  144.3675  155.5001 N.am    1  UNL1       -0.1431
     19 C         143.4747  143.3230  155.7377 C.2     1  UNL1        0.4298
     20 O         144.3239  142.6714  154.6868 O.2     1  UNL1       -0.2238
     21 O         143.5265  143.0445  157.2107 O.3     1  UNL1       -0.4079
     22 C         142.5085  143.9168  157.8835 C.2     1  UNL1        0.1618
     23 C         142.1136  144.0722  159.3222 C.2     1  UNL1        0.0429
     24 C         138.0804  138.8938  166.3796 C.3     1  UNL1        0.0899
     25 C         138.6682  137.6986  165.6896 C.3     1  UNL1        0.0360
     26 C         139.5055  137.8798  164.4584 C.ar    1  UNL1       -0.0200
     27 C         140.9867  138.0819  164.5817 C.ar    1  UNL1        0.0072
     28 C         141.8240  138.2632  163.3504 C.ar    1  UNL1        0.0582
     29 CL        143.3052  138.4652  163.4737 Cl      1  UNL1       -0.0822
     30 C         141.1801  138.2424  161.9958 C.ar    1  UNL1        0.0228
     31 C         139.6989  138.0403  161.8725 C.ar    1  UNL1        0.0582
     32 CL        139.0550  138.0195  160.5178 Cl      1  UNL1       -0.0822
     33 C         138.8616  137.8591  163.1038 C.ar    1  UNL1        0.0072
@<TRIPOS>BOND
     1    10    11    2
     2    11    12   am
     3    12     9    1
     4     1     9    1
     5     1     2    1
     6     2     3    1
     7     3     4    1
     8     4     5   am
     9     5     6    2
    10     5    24    1
    11    24    25    1
    12    25    26    1
    13    26    27   ar
    14    27    28   ar
    15    28    29    1
    16    28    30   ar
    17    30    31   ar
    18    31    32    1
    19    31    33   ar
    20     4     7    1
    21     8     7    1
    22    11    14    1
    23    14    15    2
    24    15    16    1
    25    16    17    1
    26    17    18    2
    27    18    19    1
    28    19    20    2
    29    19    21    1
    30    21    22    1
    31    22    23    2
    32     8     1    1
    33    23    14    1
    34     8     2    1
    35    22    17    1
    36    33    26   ar
    37    12    13    1
@<TRIPOS>MOLECULE
*****
 33 37 0 0 0
SMALL
GASTEIGER

@<TRIPOS>ATOM
      1 C         143.0203  138.9432  158.8612 C.3     1  UNL1        0.0230
      2 C         143.5180  138.7038  160.2558 C.3     1  UNL1        0.0233
      3 C         144.0580  138.7752  161.6534 C.3     1  UNL1        0.0935
      4 N         144.3640  140.2114  161.9593 N.am    1  UNL1       -0.2795
      5 C         144.9228  140.7388  163.2476 C.2     1  UNL1        0.2260
      6 O         145.2262  139.7968  164.3749 O.2     1  UNL1       -0.2749
      7 C         144.0132  141.0277  160.7508 C.3     1  UNL1        0.0935
      8 C         143.4903  140.0959  159.6980 C.3     1  UNL1        0.0233
      9 C         142.4615  138.4158  157.5730 C.3     1  UNL1        0.0898
     10 O         144.3800  136.7725  155.9547 O.2     1  UNL1       -0.2702
     11 C         143.1890  136.1219  156.5937 C.2     1  UNL1        0.2456
     12 N         142.2298  136.9436  157.4028 N.am    1  UNL1       -0.3009
     13 H         141.4481  136.5166  157.8223 H       1  UNL1        0.1497
     14 C         142.9573  134.6497  156.4236 C.2     1  UNL1        0.0525
     15 C         143.8298  133.6650  157.1440 C.2     1  UNL1       -0.0153
     16 C         143.5980  132.1928  156.9739 C.3     1  UNL1        0.0726
     17 C         142.4938  131.7054  156.0833 C.2     1  UNL1        0.0933
     18 N         142.0299  130.3250  155.7235 N.am    1  UNL1       -0.1431
     19 C         140.8706  130.4566  154.7808 C.2     1  UNL1        0.4298
     20 O         140.0993  129.3252  154.1683 O.2     1  UNL1       -0.2238
     21 O         140.6181  131.9184  154.5579 O.3     1  UNL1       -0.4079
     22 C         141.6213  132.6901  155.3629 C.2     1  UNL1        0.1618
     23 C         141.8531  134.1622  155.5330 C.2     1  UNL1        0.0429
     24 C         145.1782  142.2081  163.4086 C.3     1  UNL1        0.0899
     25 C         144.7828  142.9034  164.6776 C.3     1  UNL1        0.0360
     26 C         143.3405  142.9552  165.0863 C.ar    1  UNL1       -0.0200
     27 C         142.3717  143.7999  164.3130 C.ar    1  UNL1        0.0072
     28 C         140.9294  143.8517  164.7217 C.ar    1  UNL1        0.0582
     29 CL        139.9606  144.6964  163.9485 Cl      1  UNL1       -0.0822
     30 C         140.4559  143.0588  165.9038 C.ar    1  UNL1        0.0228
     31 C         141.4247  142.2142  166.6770 C.ar    1  UNL1        0.0582
     32 CL        140.9512  141.4213  167.8591 Cl      1  UNL1       -0.0822
     33 C         142.8670  142.1624  166.2683 C.ar    1  UNL1        0.0072
@<TRIPOS>BOND
     1    10    11    2
     2    11    12   am
     3    12     9    1
     4     1     9    1
     5     1     2    1
     6     2     3    1
     7     3     4    1
     8     4     5   am
     9     5     6    2
    10     5    24    1
    11    24    25    1
    12    25    26    1
    13    26    27   ar
    14    27    28   ar
    15    28    29    1
    16    28    30   ar
    17    30    31   ar
    18    31    32    1
    19    31    33   ar
    20     4     7    1
    21     8     7    1
    22    11    14    1
    23    14    15    2
    24    15    16    1
    25    16    17    1
    26    17    18    2
    27    18    19    1
    28    19    20    2
    29    19    21    1
    30    21    22    1
    31    22    23    2
    32     8     1    1
    33    23    14    1
    34     8     2    1
    35    22    17    1
    36    33    26   ar
    37    12    13    1
@<TRIPOS>MOLECULE
*****
 33 37 0 0 0
SMALL
GASTEIGER

@<TRIPOS>ATOM
      1 C         142.9947  143.7841  164.1414 C.3     1  UNL1        0.0230
      2 C         143.2643  142.8202  165.2586 C.3     1  UNL1        0.0233
      3 C         143.2216  141.8530  166.4043 C.3     1  UNL1        0.0935
      4 N         141.7843  141.6360  166.7745 N.am    1  UNL1       -0.2795
      5 C         141.2810  140.7427  167.8694 C.2     1  UNL1        0.2260
      6 O         142.2513  139.9663  168.7095 O.2     1  UNL1       -0.2749
      7 C         140.9387  142.4690  165.8576 C.3     1  UNL1        0.0935
      8 C         141.8534  143.2009  164.9207 C.3     1  UNL1        0.0233
      9 C         143.4980  144.6774  163.0466 C.3     1  UNL1        0.0898
     10 O         143.2233  142.4140  161.0968 O.2     1  UNL1       -0.2702
     11 C         142.5528  143.7271  160.8208 C.2     1  UNL1        0.2456
     12 N         142.6902  144.8588  161.7957 N.am    1  UNL1       -0.3009
     13 H         142.2501  145.7207  161.6146 H       1  UNL1        0.1497
     14 C         141.7450  143.9086  159.5700 C.2     1  UNL1        0.0525
     15 C         141.3822  142.7184  158.7323 C.2     1  UNL1       -0.0153
     16 C         140.5744  142.8999  157.4815 C.3     1  UNL1        0.0726
     17 C         140.1295  144.2715  157.0684 C.2     1  UNL1        0.0933
     18 N         139.3295  144.7565  155.8958 N.am    1  UNL1       -0.1431
     19 C         139.1979  146.2464  156.0089 C.2     1  UNL1        0.4298
     20 O         138.4746  147.1431  155.0482 O.2     1  UNL1       -0.2238
     21 O         139.9166  146.6822  157.2513 O.3     1  UNL1       -0.4079
     22 C         140.4923  145.4617  157.9061 C.2     1  UNL1        0.1618
     23 C         141.3001  145.2802  159.1569 C.2     1  UNL1        0.0429
     24 C         139.8075  140.6258  168.1242 C.3     1  UNL1        0.0899
     25 C         139.0186  139.5282  167.4738 C.3     1  UNL1        0.0360
     26 C         139.0471  139.3663  165.9828 C.ar    1  UNL1       -0.0200
     27 C         139.9499  138.3451  165.3564 C.ar    1  UNL1        0.0072
     28 C         139.9784  138.1832  163.8655 C.ar    1  UNL1        0.0582
     29 CL        140.8812  137.1622  163.2391 Cl      1  UNL1       -0.0822
     30 C         139.1041  139.0424  163.0009 C.ar    1  UNL1        0.0228
     31 C         138.2013  140.0635  163.6273 C.ar    1  UNL1        0.0582
     32 CL        137.3270  140.9226  162.7627 Cl      1  UNL1       -0.0822
     33 C         138.1728  140.2254  165.1182 C.ar    1  UNL1        0.0072
@<TRIPOS>BOND
     1    10    11    2
     2    11    12   am
     3    12     9    1
     4     1     9    1
     5     1     2    1
     6     2     3    1
     7     3     4    1
     8     4     5   am
     9     5     6    2
    10     5    24    1
    11    24    25    1
    12    25    26    1
    13    26    27   ar
    14    27    28   ar
    15    28    29    1
    16    28    30   ar
    17    30    31   ar
    18    31    32    1
    19    31    33   ar
    20     4     7    1
    21     8     7    1
    22    11    14    1
    23    14    15    2
    24    15    16    1
    25    16    17    1
    26    17    18    2
    27    18    19    1
    28    19    20    2
    29    19    21    1
    30    21    22    1
    31    22    23    2
    32     8     1    1
    33    23    14    1
    34     8     2    1
    35    22    17    1
    36    33    26   ar
    37    12    13    1
@<TRIPOS>MOLECULE
*****
 33 37 0 0 0
SMALL
GASTEIGER

@<TRIPOS>ATOM
      1 C         138.8540  138.2275  164.0883 C.3     1  UNL1        0.0230
      2 C         138.3362  138.5379  165.4615 C.3     1  UNL1        0.0233
      3 C         138.1119  138.9457  166.8874 C.3     1  UNL1        0.0935
      4 N         139.4069  139.4765  167.4270 N.am    1  UNL1       -0.2795
      5 C         139.6368  139.9959  168.8153 C.2     1  UNL1        0.2260
      6 O         138.5101  140.0142  169.8054 O.2     1  UNL1       -0.2749
      7 C         140.4317  139.3967  166.3346 C.3     1  UNL1        0.0935
      8 C         139.7699  138.8166  165.1198 C.3     1  UNL1        0.0233
      9 C         138.6241  137.7081  162.7001 C.3     1  UNL1        0.0898
     10 O         141.5131  137.2638  162.0246 O.2     1  UNL1       -0.2702
     11 C         140.6809  138.1893  161.1874 C.2     1  UNL1        0.2456
     12 N         139.2364  138.4115  161.5251 N.am    1  UNL1       -0.3009
     13 H         138.6902  139.0189  160.9757 H       1  UNL1        0.1497
     14 C         141.2932  138.8927  160.0125 C.2     1  UNL1        0.0525
     15 C         140.9644  140.3315  159.7450 C.2     1  UNL1       -0.0153
     16 C         141.5767  141.0348  158.5701 C.3     1  UNL1        0.0726
     17 C         142.5179  140.2993  157.6628 C.2     1  UNL1        0.0933
     18 N         143.2693  140.7263  156.4367 N.am    1  UNL1       -0.1431
     19 C         144.0625  139.5513  155.9465 C.2     1  UNL1        0.4298
     20 O         144.9594  139.5327  154.7443 O.2     1  UNL1       -0.2238
     21 O         143.8013  138.3982  156.8696 O.3     1  UNL1       -0.4079
     22 C         142.8467  138.8605  157.9303 C.2     1  UNL1        0.1618
     23 C         142.2344  138.1572  159.1052 C.2     1  UNL1        0.0429
     24 C         140.9934  140.4969  169.2136 C.3     1  UNL1        0.0899
     25 C         141.3763  141.9216  168.9418 C.3     1  UNL1        0.0360
     26 C         141.5875  142.3854  167.5310 C.ar    1  UNL1       -0.0200
     27 C         140.4385  142.9447  166.7455 C.ar    1  UNL1        0.0072
     28 C         140.6497  143.4085  165.3347 C.ar    1  UNL1        0.0582
     29 CL        139.5008  143.9678  164.5491 Cl      1  UNL1       -0.0822
     30 C         142.0099  143.3130  164.7095 C.ar    1  UNL1        0.0228
     31 C         143.1588  142.7538  165.4951 C.ar    1  UNL1        0.0582
     32 CL        144.5190  142.6583  164.8699 Cl      1  UNL1       -0.0822
     33 C         142.9476  142.2900  166.9058 C.ar    1  UNL1        0.0072
@<TRIPOS>BOND
     1    10    11    2
     2    11    12   am
     3    12     9    1
     4     1     9    1
     5     1     2    1
     6     2     3    1
     7     3     4    1
     8     4     5   am
     9     5     6    2
    10     5    24    1
    11    24    25    1
    12    25    26    1
    13    26    27   ar
    14    27    28   ar
    15    28    29    1
    16    28    30   ar
    17    30    31   ar
    18    31    32    1
    19    31    33   ar
    20     4     7    1
    21     8     7    1
    22    11    14    1
    23    14    15    2
    24    15    16    1
    25    16    17    1
    26    17    18    2
    27    18    19    1
    28    19    20    2
    29    19    21    1
    30    21    22    1
    31    22    23    2
    32     8     1    1
    33    23    14    1
    34     8     2    1
    35    22    17    1
    36    33    26   ar
    37    12    13    1
@<TRIPOS>MOLECULE
*****
 33 37 0 0 0
SMALL
GASTEIGER

@<TRIPOS>ATOM
      1 C         139.3137  143.9051  164.0362 C.3     1  UNL1        0.0230
      2 C         139.7068  143.1192  165.2518 C.3     1  UNL1        0.0233
      3 C         139.9058  142.1169  166.3499 C.3     1  UNL1        0.0935
      4 N         139.0594  140.9174  166.0416 N.am    1  UNL1       -0.2795
      5 C         138.9537  139.6751  166.8755 C.2     1  UNL1        0.2260
      6 O         139.7404  139.5562  168.1472 O.2     1  UNL1       -0.2749
      7 C         138.3373  141.1784  164.7531 C.3     1  UNL1        0.0935
      8 C         138.7375  142.5393  164.2649 C.3     1  UNL1        0.0233
      9 C         139.4194  145.1474  163.2023 C.3     1  UNL1        0.0898
     10 O         141.6978  144.3003  161.4440 O.2     1  UNL1       -0.2702
     11 C         140.3708  144.6478  160.8368 C.2     1  UNL1        0.2456
     12 N         139.2317  145.0713  161.7159 N.am    1  UNL1       -0.3009
     13 H         138.3608  145.2993  161.3174 H       1  UNL1        0.1497
     14 C         140.1831  144.5716  159.3505 C.2     1  UNL1        0.0525
     15 C         139.4336  143.4210  158.7472 C.2     1  UNL1       -0.0153
     16 C         139.2459  143.3449  157.2610 C.3     1  UNL1        0.0726
     17 C         139.8078  144.4195  156.3781 C.2     1  UNL1        0.0933
     18 N         139.7816  144.6121  154.8906 N.am    1  UNL1       -0.1431
     19 C         140.5150  145.8819  154.5748 C.2     1  UNL1        0.4298
     20 O         140.7311  146.4584  153.2069 O.2     1  UNL1       -0.2238
     21 O         140.9944  146.4740  155.8669 O.3     1  UNL1       -0.4079
     22 C         140.5574  145.5702  156.9814 C.2     1  UNL1        0.1618
     23 C         140.7450  145.6462  158.4676 C.2     1  UNL1        0.0429
     24 C         138.0614  138.5517  166.4378 C.3     1  UNL1        0.0899
     25 C         138.6204  137.4245  165.6210 C.3     1  UNL1        0.0360
     26 C         139.4813  137.7178  164.4282 C.ar    1  UNL1       -0.0200
     27 C         138.8717  137.7732  163.0587 C.ar    1  UNL1        0.0072
     28 C         139.7326  138.0665  161.8659 C.ar    1  UNL1        0.0582
     29 CL        139.1231  138.1219  160.4964 Cl      1  UNL1       -0.0822
     30 C         141.2031  138.3044  162.0425 C.ar    1  UNL1        0.0228
     31 C         141.8126  138.2490  163.4120 C.ar    1  UNL1        0.0582
     32 CL        143.2831  138.4869  163.5886 Cl      1  UNL1       -0.0822
     33 C         140.9517  137.9557  164.6048 C.ar    1  UNL1        0.0072
@<TRIPOS>BOND
     1    10    11    2
     2    11    12   am
     3    12     9    1
     4     1     9    1
     5     1     2    1
     6     2     3    1
     7     3     4    1
     8     4     5   am
     9     5     6    2
    10     5    24    1
    11    24    25    1
    12    25    26    1
    13    26    27   ar
    14    27    28   ar
    15    28    29    1
    16    28    30   ar
    17    30    31   ar
    18    31    32    1
    19    31    33   ar
    20     4     7    1
    21     8     7    1
    22    11    14    1
    23    14    15    2
    24    15    16    1
    25    16    17    1
    26    17    18    2
    27    18    19    1
    28    19    20    2
    29    19    21    1
    30    21    22    1
    31    22    23    2
    32     8     1    1
    33    23    14    1
    34     8     2    1
    35    22    17    1
    36    33    26   ar
    37    12    13    1
@<TRIPOS>MOLECULE
*****
 33 37 0 0 0
SMALL
GASTEIGER

@<TRIPOS>ATOM
      1 C         143.1404  138.7937  159.1636 C.3     1  UNL1        0.0230
      2 C         143.6266  139.7833  160.1806 C.3     1  UNL1        0.0233
      3 C         144.1111  140.5258  161.3906 C.3     1  UNL1        0.0935
      4 N         144.2042  139.5505  162.5264 N.am    1  UNL1       -0.2795
      5 C         144.6466  139.8652  163.9247 C.2     1  UNL1        0.2260
      6 O         145.0464  141.2646  164.2879 O.2     1  UNL1       -0.2749
      7 C         143.7774  138.2052  162.0184 C.3     1  UNL1        0.0935
      8 C         143.4204  138.3492  160.5686 C.3     1  UNL1        0.0233
      9 C         142.6981  138.4790  157.7653 C.3     1  UNL1        0.0898
     10 O         144.4973  137.1996  155.7341 O.2     1  UNL1       -0.2702
     11 C         143.3702  136.4150  156.3376 C.2     1  UNL1        0.2456
     12 N         142.4707  137.0547  157.3533 N.am    1  UNL1       -0.3009
     13 H         141.7309  136.5398  157.7494 H       1  UNL1        0.1497
     14 C         143.1428  134.9907  155.9256 C.2     1  UNL1        0.0525
     15 C         142.7997  134.6677  154.5016 C.2     1  UNL1       -0.0153
     16 C         142.5723  133.2434  154.0895 C.3     1  UNL1        0.0726
     17 C         142.6880  132.1423  155.1015 C.2     1  UNL1        0.0933
     18 N         142.5206  130.6557  154.9908 N.am    1  UNL1       -0.1431
     19 C         142.7603  130.0601  156.3465 C.2     1  UNL1        0.4298
     20 O         142.6958  128.6020  156.6929 O.2     1  UNL1       -0.2238
     21 O         143.0758  131.1785  157.2949 O.3     1  UNL1       -0.4079
     22 C         143.0311  132.4654  156.5255 C.2     1  UNL1        0.1618
     23 C         143.2585  133.8896  156.9375 C.2     1  UNL1        0.0429
     24 C         144.6892  138.7805  164.9599 C.3     1  UNL1        0.0899
     25 C         143.5842  138.6615  165.9674 C.3     1  UNL1        0.0360
     26 C         142.1896  139.0771  165.6037 C.ar    1  UNL1       -0.0200
     27 C         141.3005  138.1367  164.8452 C.ar    1  UNL1        0.0072
     28 C         139.9059  138.5524  164.4814 C.ar    1  UNL1        0.0582
     29 CL        139.0169  137.6120  163.7229 Cl      1  UNL1       -0.0822
     30 C         139.4004  139.9084  164.8762 C.ar    1  UNL1        0.0228
     31 C         140.2895  140.8487  165.6346 C.ar    1  UNL1        0.0582
     32 CL        139.7839  142.2047  166.0294 Cl      1  UNL1       -0.0822
     33 C         141.6841  140.4331  165.9984 C.ar    1  UNL1        0.0072
@<TRIPOS>BOND
     1    10    11    2
     2    11    12   am
     3    12     9    1
     4     1     9    1
     5     1     2    1
     6     2     3    1
     7     3     4    1
     8     4     5   am
     9     5     6    2
    10     5    24    1
    11    24    25    1
    12    25    26    1
    13    26    27   ar
    14    27    28   ar
    15    28    29    1
    16    28    30   ar
    17    30    31   ar
    18    31    32    1
    19    31    33   ar
    20     4     7    1
    21     8     7    1
    22    11    14    1
    23    14    15    2
    24    15    16    1
    25    16    17    1
    26    17    18    2
    27    18    19    1
    28    19    20    2
    29    19    21    1
    30    21    22    1
    31    22    23    2
    32     8     1    1
    33    23    14    1
    34     8     2    1
    35    22    17    1
    36    33    26   ar
    37    12    13    1
