@<TRIPOS>MOLECULE
*****
 35 39 0 0 0
SMALL
GASTEIGER

@<TRIPOS>ATOM
      1 C         143.5069  138.0363  160.5941 C.3     1  UNL1        0.0730
      2 N         142.6330  138.2662  161.7914 N.3     1  UNL1       -0.2720
      3 C         141.2884  137.6024  161.7527 C.3     1  UNL1        0.0768
      4 C         140.1979  137.6380  162.7822 C.3     1  UNL1        0.0433
      5 C         140.1828  138.3460  164.1044 C.ar    1  UNL1       -0.0247
      6 C         138.8901  138.1215  164.8315 C.ar    1  UNL1       -0.0045
      7 C         138.6691  138.7442  166.1781 C.ar    1  UNL1        0.0013
      8 C         139.7407  139.5916  166.7977 C.ar    1  UNL1        0.0206
      9 C         141.0333  139.8162  166.0705 C.ar    1  UNL1       -0.0029
     10 C         141.2544  139.1934  164.7239 C.ar    1  UNL1       -0.0246
     11 C         142.6057  139.5420  164.1741 C.3     1  UNL1        0.0433
     12 C         143.2192  139.1293  162.8690 C.3     1  UNL1        0.0768
     13 C         139.5196  140.2143  168.1442 C.ar    1  UNL1        0.1227
     14 C         140.0998  141.5127  168.6211 C.ar    1  UNL1        0.0580
     15 C         139.6183  141.7489  170.0220 C.ar    1  UNL1        0.1548
     16 C         139.9555  142.9301  170.8828 C.3     1  UNL1        0.0754
     17 O         138.7406  140.5964  170.4109 O.2     1  UNL1       -0.3578
     18 N         138.6796  139.6479  169.2504 N.ar    1  UNL1       -0.0774
     19 C         143.2170  138.7483  159.3061 C.3     1  UNL1        0.0294
     20 C         143.8132  140.0999  159.0457 C.3     1  UNL1        0.0666
     21 S         142.9206  141.2703  158.7568 S.3     1  UNL1       -0.0756
     22 C         139.8520  141.9262  161.0414 C.ar    1  UNL1        0.1698
     23 N         139.2152  141.1766  159.9087 N.ar    1  UNL1       -0.1281
     24 N         140.2872  140.8397  158.9152 N.ar    1  UNL1       -0.1221
     25 C         141.5865  141.3810  159.4336 C.ar    1  UNL1        0.1932
     26 N         141.3175  142.0525  160.7476 N.ar    1  UNL1       -0.2884
     27 C         142.3353  142.7312  161.6157 C.3     1  UNL1        0.1340
     28 C         138.8406  143.9206  162.3640 C.ar    1  UNL1        0.1416
     29 C         138.1356  144.4507  163.5772 C.ar    1  UNL1        0.0370
     30 C         137.7369  143.5166  164.6809 C.ar    1  UNL1        0.0031
     31 C         138.0433  142.0523  164.5716 C.ar    1  UNL1        0.0003
     32 C         138.7483  141.5221  163.3584 C.ar    1  UNL1        0.0061
     33 C         139.1470  142.4563  162.2545 C.ar    1  UNL1        0.0699
     34 C         139.7982  146.2076  161.5877 C.3     1  UNL1        0.2525
     35 O         139.2393  144.8547  161.2601 O.3     1  UNL1       -0.4713
@<TRIPOS>BOND
     1    34    35    1
     2    35    28    1
     3    28    29   ar
     4    29    30   ar
     5    30    31   ar
     6    31    32   ar
     7    32    33   ar
     8    33    22    1
     9    22    23   ar
    10    23    24   ar
    11    24    25   ar
    12    25    21    1
    13    21    20    1
    14    20    19    1
    15    19     1    1
    16     1     2    1
    17     2     3    1
    18     3     4    1
    19     4     5    1
    20     5     6   ar
    21     6     7   ar
    22     7     8   ar
    23     8    13    1
    24    13    14   ar
    25    14    15   ar
    26    15    16    1
    27    15    17   ar
    28    17    18   ar
    29     8     9   ar
    30     9    10   ar
    31    10    11    1
    32    11    12    1
    33    25    26   ar
    34    26    27    1
    35    33    28   ar
    36    26    22   ar
    37    12     2    1
    38    10     5   ar
    39    18    13   ar
@<TRIPOS>MOLECULE
*****
 35 39 0 0 0
SMALL
GASTEIGER

@<TRIPOS>ATOM
      1 C         140.9864  138.7878  159.2796 C.3     1  UNL1        0.0730
      2 N         140.6321  138.9515  160.7280 N.3     1  UNL1       -0.2720
      3 C         139.6566  137.9525  161.2762 C.3     1  UNL1        0.0768
      4 C         139.1082  137.8478  162.6685 C.3     1  UNL1        0.0433
      5 C         139.3999  138.7162  163.8562 C.ar    1  UNL1       -0.0247
      6 C         138.6370  138.2641  165.0661 C.ar    1  UNL1       -0.0045
      7 C         138.7862  138.9996  166.3649 C.ar    1  UNL1        0.0013
      8 C         139.6983  140.1871  166.4539 C.ar    1  UNL1        0.0206
      9 C         140.4612  140.6392  165.2440 C.ar    1  UNL1       -0.0029
     10 C         140.3120  139.9037  163.9453 C.ar    1  UNL1       -0.0246
     11 C         141.1577  140.5162  162.8684 C.3     1  UNL1        0.0433
     12 C         141.3001  140.0923  161.4365 C.3     1  UNL1        0.0768
     13 C         139.8475  140.9226  167.7527 C.ar    1  UNL1        0.1227
     14 C         140.3387  142.3302  167.9174 C.ar    1  UNL1        0.0580
     15 C         140.3265  142.6571  169.3813 C.ar    1  UNL1        0.1548
     16 C         140.7404  143.9608  169.9970 C.3     1  UNL1        0.0754
     17 O         139.8277  141.4515  170.1213 O.2     1  UNL1       -0.3578
     18 N         139.5316  140.3795  169.1148 N.ar    1  UNL1       -0.0774
     19 C         140.5410  139.8119  158.2782 C.3     1  UNL1        0.0294
     20 C         139.1217  139.8185  157.7928 C.3     1  UNL1        0.0666
     21 S         138.2735  141.0426  157.9721 S.3     1  UNL1       -0.0756
     22 C         139.0468  143.3479  160.9975 C.ar    1  UNL1        0.1698
     23 N         139.6193  144.1511  159.8673 N.ar    1  UNL1       -0.1281
     24 N         139.3992  143.3853  158.5965 N.ar    1  UNL1       -0.1221
     25 C         138.6908  142.1088  158.9412 C.ar    1  UNL1        0.1932
     26 N         138.4730  142.0857  160.4251 N.ar    1  UNL1       -0.2884
     27 C         137.7996  140.9924  161.2005 C.3     1  UNL1        0.1340
     28 C         140.3455  144.0030  163.1502 C.ar    1  UNL1        0.1416
     29 C         140.3466  144.3935  164.5985 C.ar    1  UNL1        0.0370
     30 C         139.0503  144.5193  165.3423 C.ar    1  UNL1        0.0031
     31 C         137.7526  144.2547  164.6380 C.ar    1  UNL1        0.0003
     32 C         137.7515  143.8642  163.1897 C.ar    1  UNL1        0.0061
     33 C         139.0480  143.7383  162.4457 C.ar    1  UNL1        0.0699
     34 C         142.9377  143.8283  163.1604 C.3     1  UNL1        0.2525
     35 O         141.6420  143.8772  162.4063 O.3     1  UNL1       -0.4713
@<TRIPOS>BOND
     1    34    35    1
     2    35    28    1
     3    28    29   ar
     4    29    30   ar
     5    30    31   ar
     6    31    32   ar
     7    32    33   ar
     8    33    22    1
     9    22    23   ar
    10    23    24   ar
    11    24    25   ar
    12    25    21    1
    13    21    20    1
    14    20    19    1
    15    19     1    1
    16     1     2    1
    17     2     3    1
    18     3     4    1
    19     4     5    1
    20     5     6   ar
    21     6     7   ar
    22     7     8   ar
    23     8    13    1
    24    13    14   ar
    25    14    15   ar
    26    15    16    1
    27    15    17   ar
    28    17    18   ar
    29     8     9   ar
    30     9    10   ar
    31    10    11    1
    32    11    12    1
    33    25    26   ar
    34    26    27    1
    35    33    28   ar
    36    26    22   ar
    37    12     2    1
    38    10     5   ar
    39    18    13   ar
@<TRIPOS>MOLECULE
*****
 35 39 0 0 0
SMALL
GASTEIGER

@<TRIPOS>ATOM
      1 C         138.3090  141.1197  158.4509 C.3     1  UNL1        0.0730
      2 N         138.4226  140.5987  159.8529 N.3     1  UNL1       -0.2720
      3 C         138.6497  139.1216  159.9818 C.3     1  UNL1        0.0768
      4 C         138.8043  138.3046  161.2304 C.3     1  UNL1        0.0433
      5 C         138.7700  138.7630  162.6581 C.ar    1  UNL1       -0.0247
      6 C         138.9670  137.6175  163.6064 C.ar    1  UNL1       -0.0045
      7 C         138.9666  137.8605  165.0865 C.ar    1  UNL1        0.0013
      8 C         138.7692  139.2491  165.6186 C.ar    1  UNL1        0.0206
      9 C         138.5722  140.3946  164.6704 C.ar    1  UNL1       -0.0029
     10 C         138.5726  140.1515  163.1902 C.ar    1  UNL1       -0.0246
     11 C         138.3607  141.4246  162.4258 C.3     1  UNL1        0.0433
     12 C         138.2940  141.6236  160.9405 C.3     1  UNL1        0.0768
     13 C         138.7689  139.4921  167.0988 C.ar    1  UNL1        0.1227
     14 C         139.7451  140.3459  167.8523 C.ar    1  UNL1        0.0580
     15 C         139.3718  140.3054  169.3045 C.ar    1  UNL1        0.1548
     16 C         140.0810  141.0186  170.4174 C.3     1  UNL1        0.0754
     17 O         138.1647  139.4267  169.4485 O.2     1  UNL1       -0.3578
     18 N         137.7920  138.9240  168.0853 N.ar    1  UNL1       -0.0774
     19 C         139.5101  141.7039  157.7683 C.3     1  UNL1        0.0294
     20 C         140.5692  140.8000  157.2100 C.3     1  UNL1        0.0666
     21 S         142.0022  140.9859  157.6123 S.3     1  UNL1       -0.0756
     22 C         143.1964  139.3900  160.9428 C.ar    1  UNL1        0.1698
     23 N         143.7453  138.4168  159.9418 N.ar    1  UNL1       -0.1281
     24 N         143.3647  138.8963  158.5724 N.ar    1  UNL1       -0.1221
     25 C         142.5806  140.1657  158.7270 C.ar    1  UNL1        0.1932
     26 N         142.4767  140.4708  160.1919 N.ar    1  UNL1       -0.2884
     27 C         141.7760  141.6498  160.7994 C.3     1  UNL1        0.1340
     28 C         144.3804  140.1202  163.1371 C.ar    1  UNL1        0.1416
     29 C         144.5258  140.0286  164.6272 C.ar    1  UNL1        0.0370
     30 C         143.6327  139.1151  165.4131 C.ar    1  UNL1        0.0031
     31 C         142.5941  138.2931  164.7089 C.ar    1  UNL1        0.0003
     32 C         142.4487  138.3848  163.2188 C.ar    1  UNL1        0.0061
     33 C         143.3419  139.2983  162.4328 C.ar    1  UNL1        0.0699
     34 C         145.0037  142.5091  162.3280 C.3     1  UNL1        0.2525
     35 O         145.2735  141.0338  162.3511 O.3     1  UNL1       -0.4713
@<TRIPOS>BOND
     1    34    35    1
     2    35    28    1
     3    28    29   ar
     4    29    30   ar
     5    30    31   ar
     6    31    32   ar
     7    32    33   ar
     8    33    22    1
     9    22    23   ar
    10    23    24   ar
    11    24    25   ar
    12    25    21    1
    13    21    20    1
    14    20    19    1
    15    19     1    1
    16     1     2    1
    17     2     3    1
    18     3     4    1
    19     4     5    1
    20     5     6   ar
    21     6     7   ar
    22     7     8   ar
    23     8    13    1
    24    13    14   ar
    25    14    15   ar
    26    15    16    1
    27    15    17   ar
    28    17    18   ar
    29     8     9   ar
    30     9    10   ar
    31    10    11    1
    32    11    12    1
    33    25    26   ar
    34    26    27    1
    35    33    28   ar
    36    26    22   ar
    37    12     2    1
    38    10     5   ar
    39    18    13   ar
@<TRIPOS>MOLECULE
*****
 35 39 0 0 0
SMALL
GASTEIGER

@<TRIPOS>ATOM
      1 C         138.1027  140.9838  158.5724 C.3     1  UNL1        0.0730
      2 N         138.2715  140.4909  159.9790 N.3     1  UNL1       -0.2720
      3 C         138.5872  139.0315  160.1236 C.3     1  UNL1        0.0768
      4 C         138.8117  138.2433  161.3800 C.3     1  UNL1        0.0433
      5 C         138.7760  138.7196  162.8017 C.ar    1  UNL1       -0.0247
      6 C         139.0567  137.6015  163.7615 C.ar    1  UNL1       -0.0045
      7 C         139.0685  137.8656  165.2380 C.ar    1  UNL1        0.0013
      8 C         138.7995  139.2479  165.7549 C.ar    1  UNL1        0.0206
      9 C         138.5187  140.3660  164.7951 C.ar    1  UNL1       -0.0029
     10 C         138.5070  140.1019  163.3186 C.ar    1  UNL1       -0.0246
     11 C         138.2072  141.3491  162.5411 C.3     1  UNL1        0.0433
     12 C         138.1024  141.5222  161.0548 C.3     1  UNL1        0.0768
     13 C         138.8112  139.5120  167.2314 C.ar    1  UNL1        0.1227
     14 C         139.8265  140.3303  167.9726 C.ar    1  UNL1        0.0580
     15 C         139.4525  140.3283  169.4252 C.ar    1  UNL1        0.1548
     16 C         140.1946  141.0237  170.5277 C.3     1  UNL1        0.0754
     17 O         138.2060  139.5086  169.5818 O.2     1  UNL1       -0.3578
     18 N         137.8096  139.0041  168.2259 N.ar    1  UNL1       -0.0774
     19 C         139.1499  141.8622  157.9547 C.3     1  UNL1        0.0294
     20 C         139.0227  143.3545  158.0397 C.3     1  UNL1        0.0666
     21 S         140.1900  144.1822  158.4892 S.3     1  UNL1       -0.0756
     22 C         141.0305  144.2592  162.2778 C.ar    1  UNL1        0.1698
     23 N         140.3435  145.5817  162.1063 N.ar    1  UNL1       -0.1281
     24 N         139.9451  145.7137  160.6663 N.ar    1  UNL1       -0.1221
     25 C         140.3858  144.4730  159.9477 C.ar    1  UNL1        0.1932
     26 N         141.0566  143.5741  160.9437 N.ar    1  UNL1       -0.2884
     27 C         141.6495  142.2266  160.6560 C.3     1  UNL1        0.1340
     28 C         143.0774  143.5960  163.7339 C.ar    1  UNL1        0.1416
     29 C         143.6396  143.0539  165.0146 C.ar    1  UNL1        0.0370
     30 C         142.7170  142.6332  166.1198 C.ar    1  UNL1        0.0031
     31 C         141.2323  142.7544  165.9445 C.ar    1  UNL1        0.0003
     32 C         140.6701  143.2964  164.6638 C.ar    1  UNL1        0.0061
     33 C         141.5927  143.7172  163.5584 C.ar    1  UNL1        0.0699
     34 C         144.8770  143.0023  161.9564 C.3     1  UNL1        0.2525
     35 O         144.0000  144.0168  162.6285 O.3     1  UNL1       -0.4713
@<TRIPOS>BOND
     1    34    35    1
     2    35    28    1
     3    28    29   ar
     4    29    30   ar
     5    30    31   ar
     6    31    32   ar
     7    32    33   ar
     8    33    22    1
     9    22    23   ar
    10    23    24   ar
    11    24    25   ar
    12    25    21    1
    13    21    20    1
    14    20    19    1
    15    19     1    1
    16     1     2    1
    17     2     3    1
    18     3     4    1
    19     4     5    1
    20     5     6   ar
    21     6     7   ar
    22     7     8   ar
    23     8    13    1
    24    13    14   ar
    25    14    15   ar
    26    15    16    1
    27    15    17   ar
    28    17    18   ar
    29     8     9   ar
    30     9    10   ar
    31    10    11    1
    32    11    12    1
    33    25    26   ar
    34    26    27    1
    35    33    28   ar
    36    26    22   ar
    37    12     2    1
    38    10     5   ar
    39    18    13   ar
@<TRIPOS>MOLECULE
*****
 35 39 0 0 0
SMALL
GASTEIGER

@<TRIPOS>ATOM
      1 C         142.6401  137.6580  160.0395 C.3     1  UNL1        0.0730
      2 N         141.8901  138.0618  161.2742 N.3     1  UNL1       -0.2720
      3 C         140.4368  138.3778  161.0786 C.3     1  UNL1        0.0768
      4 C         139.4269  138.8062  162.1017 C.3     1  UNL1        0.0433
      5 C         139.6209  139.0245  163.5729 C.ar    1  UNL1       -0.0247
      6 C         138.3454  139.4523  164.2364 C.ar    1  UNL1       -0.0045
      7 C         138.3217  139.7239  165.7114 C.ar    1  UNL1        0.0013
      8 C         139.5734  139.5677  166.5230 C.ar    1  UNL1        0.0206
      9 C         140.8489  139.1399  165.8596 C.ar    1  UNL1       -0.0029
     10 C         140.8727  138.8683  164.3846 C.ar    1  UNL1       -0.0246
     11 C         142.2396  138.4552  163.9254 C.3     1  UNL1        0.0433
     12 C         142.6923  138.0963  162.5411 C.3     1  UNL1        0.0768
     13 C         139.5497  139.8393  167.9980 C.ar    1  UNL1        0.1227
     14 C         140.6469  140.4816  168.7940 C.ar    1  UNL1        0.0580
     15 C         140.1999  140.5555  170.2240 C.ar    1  UNL1        0.1548
     16 C         140.9880  141.1259  171.3657 C.3     1  UNL1        0.0754
     17 O         138.8264  139.9590  170.3117 O.2     1  UNL1       -0.3578
     18 N         138.4245  139.5163  168.9360 N.ar    1  UNL1       -0.0774
     19 C         142.4035  138.3825  158.7476 C.3     1  UNL1        0.0294
     20 C         143.3649  139.4410  158.2943 C.3     1  UNL1        0.0666
     21 S         143.0038  140.8904  158.4311 S.3     1  UNL1       -0.0756
     22 C         141.2604  141.9872  161.7210 C.ar    1  UNL1        0.1698
     23 N         140.1172  142.0511  160.7518 N.ar    1  UNL1       -0.1281
     24 N         140.6311  141.6480  159.4016 N.ar    1  UNL1       -0.1221
     25 C         142.0920  141.3350  159.5361 C.ar    1  UNL1        0.1932
     26 N         142.4808  141.5446  160.9695 N.ar    1  UNL1       -0.2884
     27 C         143.8498  141.3465  161.5498 C.3     1  UNL1        0.1340
     28 C         139.9066  142.7810  163.7915 C.ar    1  UNL1        0.1416
     29 C         139.8408  143.1032  165.2550 C.ar    1  UNL1        0.0370
     30 C         141.0630  142.9536  166.1115 C.ar    1  UNL1        0.0031
     31 C         142.3511  142.4820  165.5045 C.ar    1  UNL1        0.0003
     32 C         142.4169  142.1598  164.0410 C.ar    1  UNL1        0.0061
     33 C         141.1946  142.3093  163.1844 C.ar    1  UNL1        0.0699
     34 C         137.6885  144.0124  163.2314 C.3     1  UNL1        0.2525
     35 O         138.6843  142.9306  162.9349 O.3     1  UNL1       -0.4713
@<TRIPOS>BOND
     1    34    35    1
     2    35    28    1
     3    28    29   ar
     4    29    30   ar
     5    30    31   ar
     6    31    32   ar
     7    32    33   ar
     8    33    22    1
     9    22    23   ar
    10    23    24   ar
    11    24    25   ar
    12    25    21    1
    13    21    20    1
    14    20    19    1
    15    19     1    1
    16     1     2    1
    17     2     3    1
    18     3     4    1
    19     4     5    1
    20     5     6   ar
    21     6     7   ar
    22     7     8   ar
    23     8    13    1
    24    13    14   ar
    25    14    15   ar
    26    15    16    1
    27    15    17   ar
    28    17    18   ar
    29     8     9   ar
    30     9    10   ar
    31    10    11    1
    32    11    12    1
    33    25    26   ar
    34    26    27    1
    35    33    28   ar
    36    26    22   ar
    37    12     2    1
    38    10     5   ar
    39    18    13   ar
@<TRIPOS>MOLECULE
*****
 35 39 0 0 0
SMALL
GASTEIGER

@<TRIPOS>ATOM
      1 C         139.6718  145.3978  160.8517 C.3     1  UNL1        0.0730
      2 N         139.6017  144.3991  161.9687 N.3     1  UNL1       -0.2720
      3 C         138.6462  143.2608  161.7649 C.3     1  UNL1        0.0768
      4 C         138.3493  142.1130  162.6840 C.3     1  UNL1        0.0433
      5 C         138.9346  141.8201  164.0335 C.ar    1  UNL1       -0.0247
      6 C         138.3605  140.5639  164.6189 C.ar    1  UNL1       -0.0045
      7 C         138.8131  140.0902  165.9682 C.ar    1  UNL1        0.0013
      8 C         139.8398  140.8726  166.7323 C.ar    1  UNL1        0.0206
      9 C         140.4139  142.1288  166.1470 C.ar    1  UNL1       -0.0029
     10 C         139.9613  142.6025  164.7976 C.ar    1  UNL1       -0.0246
     11 C         140.6563  143.8711  164.4007 C.3     1  UNL1        0.0433
     12 C         140.4962  144.6707  163.1417 C.3     1  UNL1        0.0768
     13 C         140.2923  140.3989  168.0817 C.ar    1  UNL1        0.1227
     14 C         141.7041  140.3994  168.5884 C.ar    1  UNL1        0.0580
     15 C         141.6969  139.8423  169.9811 C.ar    1  UNL1        0.1548
     16 C         142.8955  139.6618  170.8647 C.3     1  UNL1        0.0754
     17 O         140.2806  139.4975  170.3351 O.2     1  UNL1       -0.3578
     18 N         139.4125  139.8415  169.1612 N.ar    1  UNL1       -0.0774
     19 C         140.8856  145.4557  159.9725 C.3     1  UNL1        0.0294
     20 C         141.0340  144.4900  158.8341 C.3     1  UNL1        0.0666
     21 S         141.9988  143.3466  158.9415 S.3     1  UNL1       -0.0756
     22 C         142.7488  141.5866  162.3187 C.ar    1  UNL1        0.1698
     23 N         143.6514  142.7815  162.4078 N.ar    1  UNL1       -0.1281
     24 N         143.4802  143.5861  161.1536 N.ar    1  UNL1       -0.1221
     25 C         142.4719  142.8887  160.2893 C.ar    1  UNL1        0.1932
     26 N         142.0199  141.6530  161.0094 N.ar    1  UNL1       -0.2884
     27 C         141.0153  140.6581  160.5082 C.3     1  UNL1        0.1340
     28 C         143.3864  140.5913  164.6323 C.ar    1  UNL1        0.1416
     29 C         143.2387  139.5185  165.6703 C.ar    1  UNL1        0.0370
     30 C         142.3056  138.3685  165.4327 C.ar    1  UNL1        0.0031
     31 C         141.5201  138.2911  164.1572 C.ar    1  UNL1        0.0003
     32 C         141.6678  139.3638  163.1192 C.ar    1  UNL1        0.0061
     33 C         142.6010  140.5140  163.3567 C.ar    1  UNL1        0.0699
     34 C         143.9751  142.7892  165.8864 C.3     1  UNL1        0.2525
     35 O         144.3196  141.7414  164.8698 O.3     1  UNL1       -0.4713
@<TRIPOS>BOND
     1    34    35    1
     2    35    28    1
     3    28    29   ar
     4    29    30   ar
     5    30    31   ar
     6    31    32   ar
     7    32    33   ar
     8    33    22    1
     9    22    23   ar
    10    23    24   ar
    11    24    25   ar
    12    25    21    1
    13    21    20    1
    14    20    19    1
    15    19     1    1
    16     1     2    1
    17     2     3    1
    18     3     4    1
    19     4     5    1
    20     5     6   ar
    21     6     7   ar
    22     7     8   ar
    23     8    13    1
    24    13    14   ar
    25    14    15   ar
    26    15    16    1
    27    15    17   ar
    28    17    18   ar
    29     8     9   ar
    30     9    10   ar
    31    10    11    1
    32    11    12    1
    33    25    26   ar
    34    26    27    1
    35    33    28   ar
    36    26    22   ar
    37    12     2    1
    38    10     5   ar
    39    18    13   ar
@<TRIPOS>MOLECULE
*****
 35 39 0 0 0
SMALL
GASTEIGER

@<TRIPOS>ATOM
      1 C         142.8137  143.9541  158.9092 C.3     1  UNL1        0.0730
      2 N         142.3232  143.8053  160.3190 N.3     1  UNL1       -0.2720
      3 C         140.9403  144.3221  160.5848 C.3     1  UNL1        0.0768
      4 C         140.1731  144.3207  161.8738 C.3     1  UNL1        0.0433
      5 C         140.5993  143.8022  163.2151 C.ar    1  UNL1       -0.0247
      6 C         139.5251  143.9960  164.2441 C.ar    1  UNL1       -0.0045
      7 C         139.7496  143.5446  165.6569 C.ar    1  UNL1        0.0013
      8 C         141.0483  142.8994  166.0408 C.ar    1  UNL1        0.0206
      9 C         142.1224  142.7056  165.0118 C.ar    1  UNL1       -0.0029
     10 C         141.8979  143.1570  163.5990 C.ar    1  UNL1       -0.0246
     11 C         143.0911  142.8710  162.7362 C.3     1  UNL1        0.0433
     12 C         143.2803  143.1596  161.2764 C.3     1  UNL1        0.0768
     13 C         141.2728  142.4481  167.4535 C.ar    1  UNL1        0.1227
     14 C         142.2579  141.4093  167.9012 C.ar    1  UNL1        0.0580
     15 C         142.1455  141.2755  169.3910 C.ar    1  UNL1        0.1548
     16 C         142.9470  140.3484  170.2558 C.3     1  UNL1        0.0754
     17 O         141.0909  142.2315  169.8640 O.2     1  UNL1       -0.3578
     18 N         140.5515  142.9563  168.6666 N.ar    1  UNL1       -0.0774
     19 C         143.0350  142.7377  158.0599 C.3     1  UNL1        0.0294
     20 C         141.8614  141.9962  157.4915 C.3     1  UNL1        0.0666
     21 S         141.7176  140.5226  157.7316 S.3     1  UNL1       -0.0756
     22 C         142.9610  139.1418  161.1395 C.ar    1  UNL1        0.1698
     23 N         144.0312  138.6405  160.2156 N.ar    1  UNL1       -0.1281
     24 N         143.6957  139.0967  158.8267 N.ar    1  UNL1       -0.1221
     25 C         142.4181  139.8800  158.8920 C.ar    1  UNL1        0.1932
     26 N         141.9641  139.9079  160.3213 N.ar    1  UNL1       -0.2884
     27 C         140.7298  140.5833  160.8413 C.3     1  UNL1        0.1340
     28 C         141.8160  138.0579  163.2044 C.ar    1  UNL1        0.1416
     29 C         141.7536  137.8327  164.6861 C.ar    1  UNL1        0.0370
     30 C         142.7740  138.4663  165.5845 C.ar    1  UNL1        0.0031
     31 C         143.8568  139.3251  165.0013 C.ar    1  UNL1        0.0003
     32 C         143.9191  139.5502  163.5196 C.ar    1  UNL1        0.0061
     33 C         142.8987  138.9167  162.6211 C.ar    1  UNL1        0.0699
     34 C         139.3342  137.6656  162.5432 C.3     1  UNL1        0.2525
     35 O         140.7955  137.4244  162.3058 O.3     1  UNL1       -0.4713
@<TRIPOS>BOND
     1    34    35    1
     2    35    28    1
     3    28    29   ar
     4    29    30   ar
     5    30    31   ar
     6    31    32   ar
     7    32    33   ar
     8    33    22    1
     9    22    23   ar
    10    23    24   ar
    11    24    25   ar
    12    25    21    1
    13    21    20    1
    14    20    19    1
    15    19     1    1
    16     1     2    1
    17     2     3    1
    18     3     4    1
    19     4     5    1
    20     5     6   ar
    21     6     7   ar
    22     7     8   ar
    23     8    13    1
    24    13    14   ar
    25    14    15   ar
    26    15    16    1
    27    15    17   ar
    28    17    18   ar
    29     8     9   ar
    30     9    10   ar
    31    10    11    1
    32    11    12    1
    33    25    26   ar
    34    26    27    1
    35    33    28   ar
    36    26    22   ar
    37    12     2    1
    38    10     5   ar
    39    18    13   ar
@<TRIPOS>MOLECULE
*****
 35 39 0 0 0
SMALL
GASTEIGER

@<TRIPOS>ATOM
      1 C         142.7938  138.0468  158.8726 C.3     1  UNL1        0.0730
      2 N         142.8759  138.5043  160.2987 N.3     1  UNL1       -0.2720
      3 C         143.8043  139.6528  160.5613 C.3     1  UNL1        0.0768
      4 C         144.1048  140.3336  161.8638 C.3     1  UNL1        0.0433
      5 C         143.5512  140.0339  163.2252 C.ar    1  UNL1       -0.0247
      6 C         144.1177  140.9573  164.2627 C.ar    1  UNL1       -0.0045
      7 C         143.6933  140.8264  165.6954 C.ar    1  UNL1        0.0013
      8 C         142.7024  139.7720  166.0908 C.ar    1  UNL1        0.0206
      9 C         142.1358  138.8485  165.0533 C.ar    1  UNL1       -0.0029
     10 C         142.5602  138.9795  163.6206 C.ar    1  UNL1       -0.0246
     11 C         141.8782  137.9643  162.7520 C.3     1  UNL1        0.0433
     12 C         142.0187  137.7529  161.2737 C.3     1  UNL1        0.0768
     13 C         142.2780  139.6411  167.5235 C.ar    1  UNL1        0.1227
     14 C         140.9684  140.0913  168.0998 C.ar    1  UNL1        0.0580
     15 C         140.9697  139.7654  169.5640 C.ar    1  UNL1        0.1548
     16 C         139.8561  140.0426  170.5299 C.3     1  UNL1        0.0754
     17 O         142.2801  139.1137  169.8926 O.2     1  UNL1       -0.3578
     18 N         143.0887  139.0368  168.6315 N.ar    1  UNL1       -0.0774
     19 C         141.8972  138.7619  157.9059 C.3     1  UNL1        0.0294
     20 C         140.4402  138.9321  158.2195 C.3     1  UNL1        0.0666
     21 S         139.8579  140.3078  158.3549 S.3     1  UNL1       -0.0756
     22 C         140.4486  142.4260  161.5533 C.ar    1  UNL1        0.1698
     23 N         141.6471  142.8001  160.7324 N.ar    1  UNL1       -0.1281
     24 N         141.5716  142.0521  159.4344 N.ar    1  UNL1       -0.1221
     25 C         140.3266  141.2158  159.4531 C.ar    1  UNL1        0.1932
     26 N         139.6326  141.4469  160.7626 N.ar    1  UNL1       -0.2884
     27 C         138.3479  140.8105  161.2039 C.3     1  UNL1        0.1340
     28 C         139.3516  144.2170  163.0825 C.ar    1  UNL1        0.1416
     29 C         139.0264  144.7318  164.4534 C.ar    1  UNL1        0.0370
     30 C         139.4730  143.9701  165.6659 C.ar    1  UNL1        0.0031
     31 C         140.2449  142.6937  165.5076 C.ar    1  UNL1        0.0003
     32 C         140.5701  142.1790  164.1367 C.ar    1  UNL1        0.0061
     33 C         140.1235  142.9407  162.9241 C.ar    1  UNL1        0.0699
     34 C         139.8283  145.9688  161.2240 C.3     1  UNL1        0.2525
     35 O         138.9050  144.9787  161.8699 O.3     1  UNL1       -0.4713
@<TRIPOS>BOND
     1    34    35    1
     2    35    28    1
     3    28    29   ar
     4    29    30   ar
     5    30    31   ar
     6    31    32   ar
     7    32    33   ar
     8    33    22    1
     9    22    23   ar
    10    23    24   ar
    11    24    25   ar
    12    25    21    1
    13    21    20    1
    14    20    19    1
    15    19     1    1
    16     1     2    1
    17     2     3    1
    18     3     4    1
    19     4     5    1
    20     5     6   ar
    21     6     7   ar
    22     7     8   ar
    23     8    13    1
    24    13    14   ar
    25    14    15   ar
    26    15    16    1
    27    15    17   ar
    28    17    18   ar
    29     8     9   ar
    30     9    10   ar
    31    10    11    1
    32    11    12    1
    33    25    26   ar
    34    26    27    1
    35    33    28   ar
    36    26    22   ar
    37    12     2    1
    38    10     5   ar
    39    18    13   ar
@<TRIPOS>MOLECULE
*****
 35 39 0 0 0
SMALL
GASTEIGER

@<TRIPOS>ATOM
      1 C         142.9882  137.6361  160.1817 C.3     1  UNL1        0.0730
      2 N         143.0850  138.5739  161.3484 N.3     1  UNL1       -0.2720
      3 C         144.0409  139.7185  161.1858 C.3     1  UNL1        0.0768
      4 C         144.3610  140.8150  162.1582 C.3     1  UNL1        0.0433
      5 C         143.8042  141.0376  163.5330 C.ar    1  UNL1       -0.0247
      6 C         144.3952  142.2592  164.1723 C.ar    1  UNL1       -0.0045
      7 C         143.9719  142.6620  165.5538 C.ar    1  UNL1        0.0013
      8 C         142.9576  141.8433  166.2961 C.ar    1  UNL1        0.0206
      9 C         142.3666  140.6218  165.6568 C.ar    1  UNL1       -0.0029
     10 C         142.7899  140.2190  164.2753 C.ar    1  UNL1       -0.0246
     11 C         142.0818  138.9753  163.8259 C.3     1  UNL1        0.0433
     12 C         142.2132  138.2432  162.5233 C.3     1  UNL1        0.0768
     13 C         142.5343  142.2461  167.6776 C.ar    1  UNL1        0.1227
     14 C         141.1213  142.3859  168.1612 C.ar    1  UNL1        0.0580
     15 C         141.1634  142.8061  169.6005 C.ar    1  UNL1        0.1548
     16 C         139.9751  143.0615  170.4795 C.3     1  UNL1        0.0754
     17 O         142.6024  142.9259  170.0065 O.2     1  UNL1       -0.3578
     18 N         143.4497  142.5799  168.8181 N.ar    1  UNL1       -0.0774
     19 C         142.7741  138.1781  158.7996 C.3     1  UNL1        0.0294
     20 C         141.4455  138.0073  158.1244 C.3     1  UNL1        0.0666
     21 S         140.3849  139.0565  158.2797 S.3     1  UNL1       -0.0756
     22 C         139.7414  140.7728  161.7011 C.ar    1  UNL1        0.1698
     23 N         138.8608  139.5636  161.8132 N.ar    1  UNL1       -0.1281
     24 N         138.9947  138.7736  160.5452 N.ar    1  UNL1       -0.1221
     25 C         139.9580  139.4944  159.6494 C.ar    1  UNL1        0.1932
     26 N         140.4195  140.7300  160.3638 N.ar    1  UNL1       -0.2884
     27 C         141.3889  141.7447  159.8339 C.3     1  UNL1        0.1340
     28 C         139.0997  141.7936  164.0024 C.ar    1  UNL1        0.1416
     29 C         139.2719  142.8585  165.0446 C.ar    1  UNL1        0.0370
     30 C         140.2581  143.9676  164.8277 C.ar    1  UNL1        0.0031
     31 C         141.0721  144.0119  163.5685 C.ar    1  UNL1        0.0003
     32 C         140.8999  142.9469  162.5263 C.ar    1  UNL1        0.0061
     33 C         139.9136  141.8377  162.7432 C.ar    1  UNL1        0.0699
     34 C         138.2634  139.7669  165.3965 C.3     1  UNL1        0.2525
     35 O         138.1134  140.6843  164.2193 O.3     1  UNL1       -0.4713
@<TRIPOS>BOND
     1    34    35    1
     2    35    28    1
     3    28    29   ar
     4    29    30   ar
     5    30    31   ar
     6    31    32   ar
     7    32    33   ar
     8    33    22    1
     9    22    23   ar
    10    23    24   ar
    11    24    25   ar
    12    25    21    1
    13    21    20    1
    14    20    19    1
    15    19     1    1
    16     1     2    1
    17     2     3    1
    18     3     4    1
    19     4     5    1
    20     5     6   ar
    21     6     7   ar
    22     7     8   ar
    23     8    13    1
    24    13    14   ar
    25    14    15   ar
    26    15    16    1
    27    15    17   ar
    28    17    18   ar
    29     8     9   ar
    30     9    10   ar
    31    10    11    1
    32    11    12    1
    33    25    26   ar
    34    26    27    1
    35    33    28   ar
    36    26    22   ar
    37    12     2    1
    38    10     5   ar
    39    18    13   ar
