@<TRIPOS>MOLECULE
*****
 33 36 0 0 0
SMALL
GASTEIGER

@<TRIPOS>ATOM
      1 C         137.3688  137.7549  166.8380 C.3     1  UNL1        0.1164
      2 N         138.5751  138.5221  166.3839 N.am    1  UNL1       -0.2638
      3 C         139.2918  139.4280  167.3409 C.2     1  UNL1        0.3078
      4 O         138.8022  139.5666  168.7519 O.2     1  UNL1       -0.2523
      5 N         140.4982  140.1952  166.8868 N.am    1  UNL1       -0.2538
      6 C         141.1012  140.1583  165.5139 C.3     1  UNL1        0.1221
      7 C         142.2889  141.0743  165.5045 C.2     1  UNL1       -0.0024
      8 C         142.4200  141.6773  166.8717 C.2     1  UNL1       -0.0044
      9 C         141.3133  141.1340  167.7261 C.3     1  UNL1        0.1264
     10 C         143.1879  141.3406  164.3335 C.ar    1  UNL1        0.0271
     11 C         143.5126  142.7519  163.9430 C.ar    1  UNL1        0.0316
     12 C         144.4115  143.0181  162.7721 C.ar    1  UNL1        0.1403
     13 F         144.7363  144.4296  162.3816 F       1  UNL1       -0.2042
     14 C         144.9856  141.8730  161.9917 C.ar    1  UNL1        0.0319
     15 C         144.6608  140.4616  162.3822 C.ar    1  UNL1        0.0319
     16 C         143.7620  140.1954  163.5531 C.ar    1  UNL1        0.1400
     17 F         143.4371  138.7840  163.9437 F       1  UNL1       -0.2042
     18 C         139.0648  138.3835  164.9729 C.3     1  UNL1        0.0796
     19 C         138.4799  139.2392  163.8886 C.3     1  UNL1        0.0370
     20 C         138.9696  139.1005  162.4775 C.3     1  UNL1        0.0703
     21 N         140.0441  138.1063  162.1508 N.3     1  UNL1       -0.2974
     22 C         140.6290  137.2506  163.2351 C.3     1  UNL1        0.0703
     23 C         140.1393  137.3893  164.6462 C.3     1  UNL1        0.0370
     24 H         140.8167  138.6315  161.7412 H       1  UNL1        0.1232
     25 C         141.9237  141.9969  168.7903 C.ar    1  UNL1        0.0002
     26 C         143.3585  141.8025  169.1821 C.ar    1  UNL1       -0.0023
     27 C         143.9688  142.6654  170.2464 C.ar    1  UNL1       -0.0003
     28 C         143.1445  143.7229  170.9189 C.ar    1  UNL1       -0.0000
     29 C         141.7097  143.9173  170.5271 C.ar    1  UNL1       -0.0003
     30 C         141.0992  143.0544  169.4629 C.ar    1  UNL1       -0.0023
     31 C         140.3341  140.7711  168.8029 C.3     1  UNL1        0.1637
     32 O         140.8182  140.1433  170.0762 O.3     1  UNL1       -0.3796
     33 H         141.1827  139.2649  169.8854 H       1  UNL1        0.2105
@<TRIPOS>BOND
     1     1     2    1
     2     2     3   am
     3     3     4    2
     4     3     5   am
     5     5     6    1
     6     6     7    1
     7     7    10    1
     8    10    11   ar
     9    11    12   ar
    10    12    13    1
    11    12    14   ar
    12    14    15   ar
    13    15    16   ar
    14    16    17    1
    15     7     8    2
    16     8     9    1
    17     9    31    1
    18    31    32    1
    19     9    25    1
    20    25    26   ar
    21    26    27   ar
    22    27    28   ar
    23    28    29   ar
    24    29    30   ar
    25     2    18    1
    26    18    19    1
    27    19    20    1
    28    20    21    1
    29    21    22    1
    30    22    23    1
    31     9     5    1
    32    30    25   ar
    33    23    18    1
    34    16    10   ar
    35    32    33    1
    36    21    24    1
@<TRIPOS>MOLECULE
*****
 33 36 0 0 0
SMALL
GASTEIGER

@<TRIPOS>ATOM
      1 C         137.3709  137.7330  166.8061 C.3     1  UNL1        0.1164
      2 N         138.5512  138.5245  166.3262 N.am    1  UNL1       -0.2638
      3 C         139.3005  139.4068  167.2800 C.2     1  UNL1        0.3078
      4 O         138.8695  139.4977  168.7139 O.2     1  UNL1       -0.2523
      5 N         140.4809  140.1984  166.8000 N.am    1  UNL1       -0.2538
      6 C         141.0260  140.2090  165.4026 C.3     1  UNL1        0.1221
      7 C         142.2053  141.1354  165.3722 C.2     1  UNL1       -0.0024
      8 C         142.3891  141.6973  166.7508 C.2     1  UNL1       -0.0044
      9 C         141.3234  141.1182  167.6333 C.3     1  UNL1        0.1264
     10 C         143.0522  141.4455  164.1735 C.ar    1  UNL1        0.0271
     11 C         143.4143  140.3555  163.2088 C.ar    1  UNL1        0.0316
     12 C         144.2612  140.6656  162.0103 C.ar    1  UNL1        0.1403
     13 F         144.6234  139.5756  161.0455 F       1  UNL1       -0.2042
     14 C         144.7459  142.0657  161.7764 C.ar    1  UNL1        0.0319
     15 C         144.3838  143.1557  162.7411 C.ar    1  UNL1        0.0319
     16 C         143.5369  142.8456  163.9397 C.ar    1  UNL1        0.1400
     17 F         143.1748  143.9356  164.9045 F       1  UNL1       -0.2042
     18 C         138.9822  138.4336  164.8923 C.3     1  UNL1        0.0796
     19 C         140.0111  137.4225  164.4810 C.3     1  UNL1        0.0370
     20 C         140.4421  137.3317  163.0471 C.3     1  UNL1        0.0703
     21 N         139.8443  138.2519  162.0245 N.3     1  UNL1       -0.2974
     22 C         138.8154  139.2630  162.4358 C.3     1  UNL1        0.0703
     23 C         138.3844  139.3538  163.8697 C.3     1  UNL1        0.0370
     24 H         139.4098  137.6615  161.3152 H       1  UNL1        0.1232
     25 C         141.9713  141.9534  168.6974 C.ar    1  UNL1        0.0002
     26 C         141.1726  142.9952  169.4233 C.ar    1  UNL1       -0.0023
     27 C         141.8206  143.8304  170.4874 C.ar    1  UNL1       -0.0003
     28 C         143.2673  143.6240  170.8257 C.ar    1  UNL1       -0.0000
     29 C         144.0660  142.5823  170.0999 C.ar    1  UNL1       -0.0003
     30 C         143.4181  141.7470  169.0357 C.ar    1  UNL1       -0.0023
     31 C         140.3931  140.7137  168.7382 C.3     1  UNL1        0.1637
     32 O         140.9347  140.0493  169.9691 O.3     1  UNL1       -0.3796
     33 H         141.2961  139.1802  169.7349 H       1  UNL1        0.2105
@<TRIPOS>BOND
     1     1     2    1
     2     2     3   am
     3     3     4    2
     4     3     5   am
     5     5     6    1
     6     6     7    1
     7     7    10    1
     8    10    11   ar
     9    11    12   ar
    10    12    13    1
    11    12    14   ar
    12    14    15   ar
    13    15    16   ar
    14    16    17    1
    15     7     8    2
    16     8     9    1
    17     9    31    1
    18    31    32    1
    19     9    25    1
    20    25    26   ar
    21    26    27   ar
    22    27    28   ar
    23    28    29   ar
    24    29    30   ar
    25     2    18    1
    26    18    19    1
    27    19    20    1
    28    20    21    1
    29    21    22    1
    30    22    23    1
    31     9     5    1
    32    30    25   ar
    33    23    18    1
    34    16    10   ar
    35    32    33    1
    36    21    24    1
@<TRIPOS>MOLECULE
*****
 33 36 0 0 0
SMALL
GASTEIGER

@<TRIPOS>ATOM
      1 C         138.5287  139.6152  170.5513 C.3     1  UNL1        0.1164
      2 N         139.2445  140.2552  169.3988 N.am    1  UNL1       -0.2638
      3 C         138.9729  139.7938  167.9977 C.2     1  UNL1        0.3078
      4 O         137.9856  138.6922  167.7489 O.2     1  UNL1       -0.2523
      5 N         139.6887  140.4338  166.8453 N.am    1  UNL1       -0.2538
      6 C         140.6974  141.5400  166.9385 C.3     1  UNL1        0.1221
      7 C         141.1535  141.8699  165.5482 C.2     1  UNL1       -0.0024
      8 C         140.4267  140.9675  164.5956 C.2     1  UNL1       -0.0044
      9 C         139.5214  140.0799  165.3972 C.3     1  UNL1        0.1264
     10 C         142.1598  142.9181  165.1758 C.ar    1  UNL1        0.0271
     11 C         143.4767  142.9814  165.8912 C.ar    1  UNL1        0.0316
     12 C         144.4829  144.0296  165.5187 C.ar    1  UNL1        0.1403
     13 F         145.7998  144.0929  166.2341 F       1  UNL1       -0.2042
     14 C         144.1722  145.0146  164.4309 C.ar    1  UNL1        0.0319
     15 C         142.8554  144.9513  163.7155 C.ar    1  UNL1        0.0319
     16 C         141.8492  143.9031  164.0879 C.ar    1  UNL1        0.1400
     17 F         140.5322  143.8398  163.3725 F       1  UNL1       -0.2042
     18 C         140.2318  141.3567  169.6476 C.3     1  UNL1        0.0796
     19 C         139.7665  142.7815  169.7082 C.3     1  UNL1        0.0370
     20 C         140.7539  143.8830  169.9569 C.3     1  UNL1        0.0703
     21 N         142.2065  143.5598  170.1451 N.3     1  UNL1       -0.2974
     22 C         142.6718  142.1351  170.0845 C.3     1  UNL1        0.0703
     23 C         141.6844  141.0335  169.8357 C.3     1  UNL1        0.0370
     24 H         142.4712  143.9172  171.0630 H       1  UNL1        0.1232
     25 C         139.1486  139.5159  164.0583 C.ar    1  UNL1        0.0002
     26 C         139.9890  138.4396  163.4374 C.ar    1  UNL1       -0.0023
     27 C         139.6161  137.8756  162.0985 C.ar    1  UNL1       -0.0003
     28 C         138.4029  138.3878  161.3803 C.ar    1  UNL1       -0.0000
     29 C         137.5625  139.4640  162.0011 C.ar    1  UNL1       -0.0003
     30 C         137.9353  140.0281  163.3401 C.ar    1  UNL1       -0.0023
     31 C         138.5381  139.0744  165.9189 C.3     1  UNL1        0.1637
     32 O         138.6605  137.6321  165.5260 O.3     1  UNL1       -0.3796
     33 H         138.4962  137.5411  164.5744 H       1  UNL1        0.2105
@<TRIPOS>BOND
     1     1     2    1
     2     2     3   am
     3     3     4    2
     4     3     5   am
     5     5     6    1
     6     6     7    1
     7     7    10    1
     8    10    11   ar
     9    11    12   ar
    10    12    13    1
    11    12    14   ar
    12    14    15   ar
    13    15    16   ar
    14    16    17    1
    15     7     8    2
    16     8     9    1
    17     9    31    1
    18    31    32    1
    19     9    25    1
    20    25    26   ar
    21    26    27   ar
    22    27    28   ar
    23    28    29   ar
    24    29    30   ar
    25     2    18    1
    26    18    19    1
    27    19    20    1
    28    20    21    1
    29    21    22    1
    30    22    23    1
    31     9     5    1
    32    30    25   ar
    33    23    18    1
    34    16    10   ar
    35    32    33    1
    36    21    24    1
@<TRIPOS>MOLECULE
*****
 33 36 0 0 0
SMALL
GASTEIGER

@<TRIPOS>ATOM
      1 C         138.5190  139.7538  170.7179 C.3     1  UNL1        0.1164
      2 N         139.3978  140.0787  169.5465 N.am    1  UNL1       -0.2638
      3 C         138.9672  139.7044  168.1593 C.2     1  UNL1        0.3078
      4 O         137.6578  139.0052  167.9434 O.2     1  UNL1       -0.2523
      5 N         139.8461  140.0293  166.9879 N.am    1  UNL1       -0.2538
      6 C         141.1753  140.7216  167.0482 C.3     1  UNL1        0.1221
      7 C         141.7007  140.8390  165.6481 C.2     1  UNL1       -0.0024
      8 C         140.6961  140.2193  164.7225 C.2     1  UNL1       -0.0044
      9 C         139.5499  139.7188  165.5505 C.3     1  UNL1        0.1264
     10 C         143.0022  141.4662  165.2445 C.ar    1  UNL1        0.0271
     11 C         143.3043  142.8832  165.6327 C.ar    1  UNL1        0.0316
     12 C         144.6057  143.5102  165.2291 C.ar    1  UNL1        0.1403
     13 F         144.9079  144.9273  165.6174 F       1  UNL1       -0.2042
     14 C         145.6051  142.7203  164.4371 C.ar    1  UNL1        0.0319
     15 C         145.3031  141.3033  164.0488 C.ar    1  UNL1        0.0319
     16 C         144.0016  140.6762  164.4525 C.ar    1  UNL1        0.1400
     17 F         143.6995  139.2591  164.0642 F       1  UNL1       -0.2042
     18 C         140.7072  140.7779  169.7624 C.3     1  UNL1        0.0796
     19 C         141.9527  139.9787  170.0076 C.3     1  UNL1        0.0370
     20 C         143.2622  140.6780  170.2234 C.3     1  UNL1        0.0703
     21 N         143.3261  142.1763  170.1941 N.3     1  UNL1       -0.2974
     22 C         142.0806  142.9755  169.9489 C.3     1  UNL1        0.0703
     23 C         140.7711  142.2762  169.7330 C.3     1  UNL1        0.0370
     24 H         143.9871  142.4285  169.4594 H       1  UNL1        0.1232
     25 C         138.9896  139.2847  164.2286 C.ar    1  UNL1        0.0002
     26 C         138.0188  140.1658  163.4997 C.ar    1  UNL1       -0.0023
     27 C         137.4586  139.7317  162.1777 C.ar    1  UNL1       -0.0003
     28 C         137.8691  138.4166  161.5846 C.ar    1  UNL1       -0.0000
     29 C         138.8398  137.5354  162.3134 C.ar    1  UNL1       -0.0003
     30 C         139.4001  137.9695  163.6354 C.ar    1  UNL1       -0.0023
     31 C         138.2865  139.1276  166.1022 C.3     1  UNL1        0.1637
     32 O         138.0148  137.6606  165.9471 O.3     1  UNL1       -0.3796
     33 H         137.8951  137.4515  165.0075 H       1  UNL1        0.2105
@<TRIPOS>BOND
     1     1     2    1
     2     2     3   am
     3     3     4    2
     4     3     5   am
     5     5     6    1
     6     6     7    1
     7     7    10    1
     8    10    11   ar
     9    11    12   ar
    10    12    13    1
    11    12    14   ar
    12    14    15   ar
    13    15    16   ar
    14    16    17    1
    15     7     8    2
    16     8     9    1
    17     9    31    1
    18    31    32    1
    19     9    25    1
    20    25    26   ar
    21    26    27   ar
    22    27    28   ar
    23    28    29   ar
    24    29    30   ar
    25     2    18    1
    26    18    19    1
    27    19    20    1
    28    20    21    1
    29    21    22    1
    30    22    23    1
    31     9     5    1
    32    30    25   ar
    33    23    18    1
    34    16    10   ar
    35    32    33    1
    36    21    24    1
@<TRIPOS>MOLECULE
*****
 33 36 0 0 0
SMALL
GASTEIGER

@<TRIPOS>ATOM
      1 C         138.7824  141.1125  157.2027 C.3     1  UNL1        0.1164
      2 N         139.4295  141.5018  158.4988 N.am    1  UNL1       -0.2638
      3 C         139.1195  140.7370  159.7513 C.2     1  UNL1        0.3078
      4 O         138.1624  139.5829  159.7078 O.2     1  UNL1       -0.2523
      5 N         139.7666  141.1263  161.0474 N.am    1  UNL1       -0.2538
      6 C         140.7388  142.2515  161.2444 C.3     1  UNL1        0.1221
      7 C         141.1282  142.2794  162.6927 C.2     1  UNL1       -0.0024
      8 C         140.3966  141.1715  163.3908 C.2     1  UNL1       -0.0044
      9 C         139.5551  140.4588  162.3740 C.3     1  UNL1        0.1264
     10 C         142.0817  143.2456  163.3309 C.ar    1  UNL1        0.0271
     11 C         143.2730  142.7355  164.0863 C.ar    1  UNL1        0.0316
     12 C         144.2264  143.7017  164.7245 C.ar    1  UNL1        0.1403
     13 F         145.4177  143.1915  165.4799 F       1  UNL1       -0.2042
     14 C         143.9886  145.1781  164.6073 C.ar    1  UNL1        0.0319
     15 C         142.7974  145.6882  163.8519 C.ar    1  UNL1        0.0319
     16 C         141.8440  144.7220  163.2137 C.ar    1  UNL1        0.1400
     17 F         140.6526  145.2322  162.4583 F       1  UNL1       -0.2042
     18 C         140.3866  142.6560  158.5422 C.3     1  UNL1        0.0796
     19 C         141.8458  142.4306  158.2777 C.3     1  UNL1        0.0370
     20 C         142.8029  143.5849  158.3212 C.3     1  UNL1        0.0703
     21 N         142.3008  144.9644  158.6292 N.3     1  UNL1       -0.2974
     22 C         140.8416  145.1897  158.8938 C.3     1  UNL1        0.0703
     23 C         139.8845  144.0354  158.8503 C.3     1  UNL1        0.0370
     24 H         142.5502  145.5528  157.8343 H       1  UNL1        0.1232
     25 C         139.1500  139.6051  163.5388 C.ar    1  UNL1        0.0002
     26 C         139.4591  138.1372  163.5363 C.ar    1  UNL1       -0.0023
     27 C         139.0540  137.2836  164.7012 C.ar    1  UNL1       -0.0003
     28 C         138.3398  137.8975  165.8686 C.ar    1  UNL1       -0.0000
     29 C         138.0307  139.3653  165.8711 C.ar    1  UNL1       -0.0003
     30 C         138.4358  140.2191  164.7063 C.ar    1  UNL1       -0.0023
     31 C         138.6290  139.5677  161.6006 C.3     1  UNL1        0.1637
     32 O         137.1859  139.4622  161.9958 O.3     1  UNL1       -0.3796
     33 H         137.1195  139.0461  162.8695 H       1  UNL1        0.2105
@<TRIPOS>BOND
     1     1     2    1
     2     2     3   am
     3     3     4    2
     4     3     5   am
     5     5     6    1
     6     6     7    1
     7     7    10    1
     8    10    11   ar
     9    11    12   ar
    10    12    13    1
    11    12    14   ar
    12    14    15   ar
    13    15    16   ar
    14    16    17    1
    15     7     8    2
    16     8     9    1
    17     9    31    1
    18    31    32    1
    19     9    25    1
    20    25    26   ar
    21    26    27   ar
    22    27    28   ar
    23    28    29   ar
    24    29    30   ar
    25     2    18    1
    26    18    19    1
    27    19    20    1
    28    20    21    1
    29    21    22    1
    30    22    23    1
    31     9     5    1
    32    30    25   ar
    33    23    18    1
    34    16    10   ar
    35    32    33    1
    36    21    24    1
@<TRIPOS>MOLECULE
*****
 33 36 0 0 0
SMALL
GASTEIGER

@<TRIPOS>ATOM
      1 C         139.6185  146.5496  161.4892 C.3     1  UNL1        0.1164
      2 N         140.0542  145.1233  161.6495 N.am    1  UNL1       -0.2638
      3 C         141.0089  144.5156  160.6650 C.2     1  UNL1        0.3078
      4 O         141.5278  145.3342  159.5202 O.2     1  UNL1       -0.2523
      5 N         141.4446  143.0892  160.8252 N.am    1  UNL1       -0.2538
      6 C         141.0124  142.1523  161.9140 C.3     1  UNL1        0.1221
      7 C         141.6897  140.8334  161.6865 C.2     1  UNL1       -0.0024
      8 C         142.5405  140.9552  160.4571 C.2     1  UNL1       -0.0044
      9 C         142.3890  142.3493  159.9248 C.3     1  UNL1        0.1264
     10 C         141.5422  139.6078  162.5388 C.ar    1  UNL1        0.0271
     11 C         142.4465  139.4006  163.7174 C.ar    1  UNL1        0.0316
     12 C         142.2989  138.1751  164.5696 C.ar    1  UNL1        0.1403
     13 F         143.2033  137.9678  165.7483 F       1  UNL1       -0.2042
     14 C         141.2470  137.1568  164.2432 C.ar    1  UNL1        0.0319
     15 C         140.3427  137.3640  163.0645 C.ar    1  UNL1        0.0319
     16 C         140.4903  138.5895  162.2123 C.ar    1  UNL1        0.1400
     17 F         139.5859  138.7968  161.0336 F       1  UNL1       -0.2042
     18 C         139.5353  144.3046  162.7943 C.3     1  UNL1        0.0796
     19 C         138.2815  143.4974  162.6315 C.3     1  UNL1        0.0370
     20 C         137.7626  142.6787  163.7763 C.3     1  UNL1        0.0703
     21 N         138.4975  142.6673  165.0839 N.3     1  UNL1       -0.2974
     22 C         139.7513  143.4745  165.2467 C.3     1  UNL1        0.0703
     23 C         140.2702  144.2932  164.1019 C.3     1  UNL1        0.0370
     24 H         138.7457  141.6963  165.2737 H       1  UNL1        0.1232
     25 C         143.3434  141.8804  158.8670 C.ar    1  UNL1        0.0002
     26 C         144.6322  142.6140  158.6410 C.ar    1  UNL1       -0.0023
     27 C         145.5866  142.1451  157.5831 C.ar    1  UNL1       -0.0003
     28 C         145.2523  140.9426  156.7511 C.ar    1  UNL1       -0.0000
     29 C         143.9636  140.2090  156.9770 C.ar    1  UNL1       -0.0003
     30 C         143.0092  140.6778  158.0349 C.ar    1  UNL1       -0.0023
     31 C         142.4371  143.6454  159.1713 C.3     1  UNL1        0.1637
     32 O         142.0735  143.6812  157.7166 O.3     1  UNL1       -0.3796
     33 H         142.7250  143.1735  157.2079 H       1  UNL1        0.2105
@<TRIPOS>BOND
     1     1     2    1
     2     2     3   am
     3     3     4    2
     4     3     5   am
     5     5     6    1
     6     6     7    1
     7     7    10    1
     8    10    11   ar
     9    11    12   ar
    10    12    13    1
    11    12    14   ar
    12    14    15   ar
    13    15    16   ar
    14    16    17    1
    15     7     8    2
    16     8     9    1
    17     9    31    1
    18    31    32    1
    19     9    25    1
    20    25    26   ar
    21    26    27   ar
    22    27    28   ar
    23    28    29   ar
    24    29    30   ar
    25     2    18    1
    26    18    19    1
    27    19    20    1
    28    20    21    1
    29    21    22    1
    30    22    23    1
    31     9     5    1
    32    30    25   ar
    33    23    18    1
    34    16    10   ar
    35    32    33    1
    36    21    24    1
@<TRIPOS>MOLECULE
*****
 33 36 0 0 0
SMALL
GASTEIGER

@<TRIPOS>ATOM
      1 C         139.5974  146.6319  161.4120 C.3     1  UNL1        0.1164
      2 N         140.0026  145.1937  161.5445 N.am    1  UNL1       -0.2638
      3 C         140.9767  144.5964  160.5728 C.2     1  UNL1        0.3078
      4 O         141.5456  145.4372  159.4685 O.2     1  UNL1       -0.2523
      5 N         141.3820  143.1582  160.7053 N.am    1  UNL1       -0.2538
      6 C         140.8995  142.1992  161.7529 C.3     1  UNL1        0.1221
      7 C         141.5602  140.8749  161.5086 C.2     1  UNL1       -0.0024
      8 C         142.4511  141.0155  160.3100 C.2     1  UNL1       -0.0044
      9 C         142.3410  142.4267  159.8135 C.3     1  UNL1        0.1264
     10 C         141.3644  139.6288  162.3203 C.ar    1  UNL1        0.0271
     11 C         140.0242  138.9558  162.3499 C.ar    1  UNL1        0.0316
     12 C         139.8285  137.7097  163.1617 C.ar    1  UNL1        0.1403
     13 F         138.4883  137.0367  163.1913 F       1  UNL1       -0.2042
     14 C         140.9730  137.1366  163.9438 C.ar    1  UNL1        0.0319
     15 C         142.3132  137.8096  163.9142 C.ar    1  UNL1        0.0319
     16 C         142.5089  139.0557  163.1025 C.ar    1  UNL1        0.1400
     17 F         143.8492  139.7288  163.0729 F       1  UNL1       -0.2042
     18 C         139.4338  144.3529  162.6488 C.3     1  UNL1        0.0796
     19 C         140.1048  144.3224  163.9900 C.3     1  UNL1        0.0370
     20 C         139.5358  143.4815  165.0943 C.3     1  UNL1        0.0703
     21 N         138.2960  142.6712  164.8573 N.3     1  UNL1       -0.2974
     22 C         137.6250  142.7017  163.5161 C.3     1  UNL1        0.0703
     23 C         138.1939  143.5426  162.4118 C.3     1  UNL1        0.0370
     24 H         137.6051  142.9839  165.5394 H       1  UNL1        0.1232
     25 C         143.3196  141.9702  158.7725 C.ar    1  UNL1        0.0002
     26 C         142.9974  140.7878  157.9074 C.ar    1  UNL1       -0.0023
     27 C         143.9760  140.3314  156.8664 C.ar    1  UNL1       -0.0003
     28 C         145.2769  141.0571  156.6904 C.ar    1  UNL1       -0.0000
     29 C         145.5992  142.2394  157.5555 C.ar    1  UNL1       -0.0003
     30 C         144.6205  142.6959  158.5966 C.ar    1  UNL1       -0.0023
     31 C         142.4354  143.7424  159.0994 C.3     1  UNL1        0.1637
     32 O         142.1145  143.8265  157.6367 O.3     1  UNL1       -0.3796
     33 H         142.7704  143.3206  157.1321 H       1  UNL1        0.2105
@<TRIPOS>BOND
     1     1     2    1
     2     2     3   am
     3     3     4    2
     4     3     5   am
     5     5     6    1
     6     6     7    1
     7     7    10    1
     8    10    11   ar
     9    11    12   ar
    10    12    13    1
    11    12    14   ar
    12    14    15   ar
    13    15    16   ar
    14    16    17    1
    15     7     8    2
    16     8     9    1
    17     9    31    1
    18    31    32    1
    19     9    25    1
    20    25    26   ar
    21    26    27   ar
    22    27    28   ar
    23    28    29   ar
    24    29    30   ar
    25     2    18    1
    26    18    19    1
    27    19    20    1
    28    20    21    1
    29    21    22    1
    30    22    23    1
    31     9     5    1
    32    30    25   ar
    33    23    18    1
    34    16    10   ar
    35    32    33    1
    36    21    24    1
@<TRIPOS>MOLECULE
*****
 33 36 0 0 0
SMALL
GASTEIGER

@<TRIPOS>ATOM
      1 C         144.3137  143.6241  165.0527 C.3     1  UNL1        0.1164
      2 N         143.3160  142.8975  164.2002 N.am    1  UNL1       -0.2638
      3 C         142.3489  141.9390  164.8293 C.2     1  UNL1        0.3078
      4 O         142.3794  141.7071  166.3109 O.2     1  UNL1       -0.2523
      5 N         141.3512  141.2124  163.9768 N.am    1  UNL1       -0.2538
      6 C         141.2023  141.3414  162.4898 C.3     1  UNL1        0.1221
      7 C         140.0863  140.4380  162.0556 C.2     1  UNL1       -0.0024
      8 C         139.5455  139.7507  163.2743 C.2     1  UNL1       -0.0044
      9 C         140.3272  140.2293  164.4617 C.3     1  UNL1        0.1264
     10 C         139.5970  140.2542  160.6496 C.ar    1  UNL1        0.0271
     11 C         140.0136  139.0473  159.8623 C.ar    1  UNL1        0.0316
     12 C         139.5243  138.8635  158.4563 C.ar    1  UNL1        0.1403
     13 F         139.9408  137.6566  157.6689 F       1  UNL1       -0.2042
     14 C         138.6185  139.8866  157.8376 C.ar    1  UNL1        0.0319
     15 C         138.2019  141.0935  158.6249 C.ar    1  UNL1        0.0319
     16 C         138.6912  141.2773  160.0309 C.ar    1  UNL1        0.1400
     17 F         138.2747  142.4842  160.8183 F       1  UNL1       -0.2042
     18 C         143.2855  143.1294  162.7185 C.3     1  UNL1        0.0796
     19 C         142.3088  144.1052  162.1321 C.3     1  UNL1        0.0370
     20 C         142.2783  144.3371  160.6503 C.3     1  UNL1        0.0703
     21 N         143.2245  143.5933  159.7552 N.3     1  UNL1       -0.2974
     22 C         144.2013  142.6175  160.3416 C.3     1  UNL1        0.0703
     23 C         144.2318  142.3856  161.8234 C.3     1  UNL1        0.0370
     24 H         143.7723  144.2952  159.2576 H       1  UNL1        0.1232
     25 C         139.4274  139.3059  165.2282 C.ar    1  UNL1        0.0002
     26 C         138.6497  139.8207  166.4030 C.ar    1  UNL1       -0.0023
     27 C         137.7499  138.8972  167.1695 C.ar    1  UNL1       -0.0003
     28 C         137.6278  137.4591  166.7613 C.ar    1  UNL1       -0.0000
     29 C         138.4054  136.9443  165.5865 C.ar    1  UNL1       -0.0003
     30 C         139.3053  137.8677  164.8199 C.ar    1  UNL1       -0.0023
     31 C         140.9208  140.5149  165.8093 C.3     1  UNL1        0.1637
     32 O         141.4997  139.3977  166.6258 O.3     1  UNL1       -0.3796
     33 H         140.7922  138.7873  166.8861 H       1  UNL1        0.2105
@<TRIPOS>BOND
     1     1     2    1
     2     2     3   am
     3     3     4    2
     4     3     5   am
     5     5     6    1
     6     6     7    1
     7     7    10    1
     8    10    11   ar
     9    11    12   ar
    10    12    13    1
    11    12    14   ar
    12    14    15   ar
    13    15    16   ar
    14    16    17    1
    15     7     8    2
    16     8     9    1
    17     9    31    1
    18    31    32    1
    19     9    25    1
    20    25    26   ar
    21    26    27   ar
    22    27    28   ar
    23    28    29   ar
    24    29    30   ar
    25     2    18    1
    26    18    19    1
    27    19    20    1
    28    20    21    1
    29    21    22    1
    30    22    23    1
    31     9     5    1
    32    30    25   ar
    33    23    18    1
    34    16    10   ar
    35    32    33    1
    36    21    24    1
@<TRIPOS>MOLECULE
*****
 33 36 0 0 0
SMALL
GASTEIGER

@<TRIPOS>ATOM
      1 C         142.9682  136.9880  159.8662 C.3     1  UNL1        0.1164
      2 N         142.3951  138.2602  160.4167 N.am    1  UNL1       -0.2638
      3 C         141.7012  138.2565  161.7465 C.2     1  UNL1        0.3078
      4 O         141.5803  136.9805  162.5258 O.2     1  UNL1       -0.2523
      5 N         141.1281  139.5287  162.2970 N.am    1  UNL1       -0.2538
      6 C         141.1719  140.8742  161.6355 C.3     1  UNL1        0.1221
      7 C         140.4815  141.8559  162.5353 C.2     1  UNL1       -0.0024
      8 C         140.0111  141.1170  163.7531 C.2     1  UNL1       -0.0044
      9 C         140.4107  139.6788  163.6058 C.3     1  UNL1        0.1264
     10 C         140.2944  143.3195  162.2650 C.ar    1  UNL1        0.0271
     11 C         140.2318  143.8191  160.8521 C.ar    1  UNL1        0.0316
     12 C         140.0447  145.2826  160.5818 C.ar    1  UNL1        0.1403
     13 F         139.9822  145.7824  159.1688 F       1  UNL1       -0.2042
     14 C         139.9202  146.2465  161.7244 C.ar    1  UNL1        0.0319
     15 C         139.9827  145.7468  163.1373 C.ar    1  UNL1        0.0319
     16 C         140.1698  144.2833  163.4076 C.ar    1  UNL1        0.1400
     17 F         140.2324  143.7835  164.8205 F       1  UNL1       -0.2042
     18 C         142.5160  139.5362  159.6374 C.3     1  UNL1        0.0796
     19 C         141.4342  139.9341  158.6774 C.3     1  UNL1        0.0370
     20 C         141.5552  141.2101  157.8981 C.3     1  UNL1        0.0703
     21 N         142.7578  142.0882  158.0788 N.3     1  UNL1       -0.2974
     22 C         143.8395  141.6903  159.0388 C.3     1  UNL1        0.0703
     23 C         143.7186  140.4143  159.8181 C.3     1  UNL1        0.0370
     24 H         142.4142  142.9990  158.3834 H       1  UNL1        0.1232
     25 C         139.7479  139.5213  164.9421 C.ar    1  UNL1        0.0002
     26 C         140.2298  140.3196  166.1171 C.ar    1  UNL1       -0.0023
     27 C         139.5669  140.1620  167.4534 C.ar    1  UNL1       -0.0003
     28 C         138.4221  139.2063  167.6148 C.ar    1  UNL1       -0.0000
     29 C         137.9402  138.4081  166.4399 C.ar    1  UNL1       -0.0003
     30 C         138.6030  138.5655  165.1035 C.ar    1  UNL1       -0.0023
     31 C         140.6717  138.2076  163.7379 C.3     1  UNL1        0.1637
     32 O         141.4314  137.6839  164.9205 O.3     1  UNL1       -0.3796
     33 H         142.3448  138.0086  164.8876 H       1  UNL1        0.2105
@<TRIPOS>BOND
     1     1     2    1
     2     2     3   am
     3     3     4    2
     4     3     5   am
     5     5     6    1
     6     6     7    1
     7     7    10    1
     8    10    11   ar
     9    11    12   ar
    10    12    13    1
    11    12    14   ar
    12    14    15   ar
    13    15    16   ar
    14    16    17    1
    15     7     8    2
    16     8     9    1
    17     9    31    1
    18    31    32    1
    19     9    25    1
    20    25    26   ar
    21    26    27   ar
    22    27    28   ar
    23    28    29   ar
    24    29    30   ar
    25     2    18    1
    26    18    19    1
    27    19    20    1
    28    20    21    1
    29    21    22    1
    30    22    23    1
    31     9     5    1
    32    30    25   ar
    33    23    18    1
    34    16    10   ar
    35    32    33    1
    36    21    24    1
