@<TRIPOS>MOLECULE
*****
 48 53 0 0 0
SMALL
GASTEIGER

@<TRIPOS>ATOM
      1 C         138.4805  141.6070  155.6417 C.3     1  UNL1        0.1355
      2 N         134.7106  140.7048  155.4439 N.am    1  UNL1       -0.2059
      3 C         136.0175  140.7184  156.1798 C.3     1  UNL1        0.1483
      4 C         137.0373  141.3803  155.3011 C.3     1  UNL1        0.2101
      5 O         136.3605  141.7757  154.0222 O.3     1  UNL1       -0.4345
      6 C         134.9225  141.3582  154.1105 C.2     1  UNL1        0.4098
      7 O         133.8795  141.5589  153.0512 O.2     1  UNL1       -0.2258
      8 C         130.8341  139.0024  156.9688 C.ar    1  UNL1        0.0223
      9 C         130.8705  140.3877  156.3946 C.ar    1  UNL1        0.0045
     10 C         132.1626  140.9551  155.8863 C.ar    1  UNL1        0.0348
     11 C         133.4184  140.1373  155.9522 C.ar    1  UNL1        0.1400
     12 N         133.3820  138.7521  156.5264 N.ar    1  UNL1       -0.2287
     13 C         132.0898  138.1846  157.0348 C.ar    1  UNL1        0.1004
     14 C         128.5107  137.9343  156.5099 C.ar    1  UNL1        0.1385
     15 C         127.2186  137.3669  157.0182 C.ar    1  UNL1        0.0392
     16 C         126.9578  137.3001  158.4938 C.ar    1  UNL1        0.0327
     17 C         127.9891  137.8007  159.4611 C.ar    1  UNL1        0.1403
     18 F         127.7282  137.7339  160.9368 F       1  UNL1       -0.2042
     19 C         129.2812  138.3682  158.9528 C.ar    1  UNL1        0.0327
     20 C         129.5420  138.4350  157.4771 C.ar    1  UNL1        0.0377
     21 O         128.7715  138.0011  155.0342 O.3     1  UNL1       -0.4792
     22 C         128.3884  140.2655  153.8192 C.3     1  UNL1        0.0472
     23 C         127.9252  138.8805  154.1621 C.3     1  UNL1        0.1661
     24 C         126.6159  138.3750  153.6329 C.3     1  UNL1        0.0472
     25 N         138.8987  141.7548  157.0746 N.am    1  UNL1       -0.2975
     26 C         139.1455  140.5360  157.9133 C.2     1  UNL1        0.2459
     27 O         138.9741  139.1693  157.3192 O.2     1  UNL1       -0.2701
     28 H         139.0112  142.6517  157.4645 H       1  UNL1        0.1499
     29 C         139.5637  140.6838  159.3462 C.ar    1  UNL1        0.0534
     30 C         138.6690  141.3926  160.3194 C.ar    1  UNL1        0.0047
     31 C         139.0871  141.5405  161.7523 C.ar    1  UNL1        0.0048
     32 C         140.4001  140.9795  162.2121 C.ar    1  UNL1        0.0536
     33 C         141.2949  140.2707  161.2390 C.ar    1  UNL1        0.0048
     34 C         140.8767  140.1228  159.8060 C.ar    1  UNL1        0.0047
     35 C         140.8183  141.1273  163.6450 C.ar    1  UNL1        0.2296
     36 N         142.0624  141.8073  164.1347 N.ar    1  UNL1       -0.2082
     37 C         142.0788  141.7213  165.6322 C.ar    1  UNL1        0.1192
     38 C         143.0580  142.2159  166.6552 C.ar    1  UNL1        0.0326
     39 C         142.8031  141.9773  168.1141 C.ar    1  UNL1        0.0698
     40 C         141.5692  141.2442  168.5498 C.ar    1  UNL1        0.0091
     41 C         140.5901  140.7496  167.5267 C.ar    1  UNL1        0.0143
     42 C         140.8449  140.9882  166.0679 C.ar    1  UNL1        0.1607
     43 O         140.0658  140.6211  164.8398 O.2     1  UNL1       -0.4349
     44 C         139.3561  140.0165  167.9625 C.3     1  UNL1        0.0254
     45 C         138.8844  140.1200  169.3827 C.3     1  UNL1        0.0048
     46 C         138.5938  139.1798  166.9781 C.3     1  UNL1        0.0048
     47 C         143.7823  142.4719  169.1372 C.1     1  UNL1        0.1005
     48 N         144.7615  142.9665  170.1602 N.1     1  UNL1       -0.1908
@<TRIPOS>BOND
     1    22    23    1
     2    23    24    1
     3    23    21    1
     4    21    14    1
     5    14    15   ar
     6    15    16   ar
     7    16    17   ar
     8    17    18    1
     9    17    19   ar
    10    19    20   ar
    11    20     8    1
    12     8     9   ar
    13     9    10   ar
    14    10    11   ar
    15    11     2    1
    16     2     3    1
    17     3     4    1
    18     4     1    1
    19     1    25    1
    20    25    26   am
    21    26    27    2
    22    26    29    1
    23    29    30   ar
    24    30    31   ar
    25    31    32   ar
    26    32    35    1
    27    35    36   ar
    28    36    37   ar
    29    37    38   ar
    30    38    39   ar
    31    39    47    1
    32    47    48    3
    33    39    40   ar
    34    40    41   ar
    35    41    44    1
    36    44    45    1
    37    44    46    1
    38    41    42   ar
    39    42    43   ar
    40    32    33   ar
    41    33    34   ar
    42     4     5    1
    43     5     6    1
    44     6     7    2
    45    11    12   ar
    46    12    13   ar
    47    20    14   ar
    48    13     8   ar
    49     6     2   am
    50    34    29   ar
    51    43    35   ar
    52    42    37   ar
    53    25    28    1
@<TRIPOS>MOLECULE
*****
 48 53 0 0 0
SMALL
GASTEIGER

@<TRIPOS>ATOM
      1 C         141.6787  138.4832  155.6390 C.3     1  UNL1        0.1355
      2 N         142.4035  134.6749  155.4478 N.am    1  UNL1       -0.2059
      3 C         142.3375  135.9587  156.2206 C.3     1  UNL1        0.1483
      4 C         141.8826  137.0398  155.2854 C.3     1  UNL1        0.2101
      5 O         141.6676  136.4240  153.9347 O.3     1  UNL1       -0.4345
      6 C         141.9895  134.9624  154.0350 C.2     1  UNL1        0.4098
      7 O         141.9111  133.9636  152.9186 O.2     1  UNL1       -0.2258
      8 C         143.6285  130.6646  157.0809 C.ar    1  UNL1        0.0223
      9 C         142.4649  130.7675  156.1398 C.ar    1  UNL1        0.0045
     10 C         142.0566  132.1042  155.5955 C.ar    1  UNL1        0.0348
     11 C         142.8118  133.3381  155.9921 C.ar    1  UNL1        0.1400
     12 N         143.9754  133.2352  156.9332 N.ar    1  UNL1       -0.2287
     13 C         144.3837  131.8984  157.4776 C.ar    1  UNL1        0.1004
     14 C         144.8609  128.3965  156.7867 C.ar    1  UNL1        0.1385
     15 C         145.2692  127.0597  157.3310 C.ar    1  UNL1        0.0392
     16 C         144.8535  126.6544  158.7140 C.ar    1  UNL1        0.0327
     17 C         144.0294  127.5857  159.5527 C.ar    1  UNL1        0.1403
     18 F         143.6136  127.1803  160.9357 F       1  UNL1       -0.2042
     19 C         143.6210  128.9224  159.0083 C.ar    1  UNL1        0.0327
     20 C         144.0368  129.3278  157.6253 C.ar    1  UNL1        0.0377
     21 O         145.2767  128.8018  155.4036 O.3     1  UNL1       -0.4792
     22 C         143.2158  127.5632  154.4192 C.3     1  UNL1        0.0472
     23 C         144.4348  128.4152  154.2238 C.3     1  UNL1        0.1661
     24 C         144.8119  128.8806  152.8486 C.3     1  UNL1        0.0472
     25 N         141.7610  138.9236  157.0706 N.am    1  UNL1       -0.2975
     26 C         140.5505  138.8382  157.9522 C.2     1  UNL1        0.2459
     27 O         139.2578  138.3124  157.4024 O.2     1  UNL1       -0.2701
     28 H         142.6095  139.2687  157.4314 H       1  UNL1        0.1499
     29 C         140.6328  139.2786  159.3837 C.ar    1  UNL1        0.0534
     30 C         141.9686  139.5535  160.0082 C.ar    1  UNL1        0.0047
     31 C         142.0511  139.9939  161.4398 C.ar    1  UNL1        0.0048
     32 C         140.7976  140.1593  162.2469 C.ar    1  UNL1        0.0536
     33 C         139.4618  139.8843  161.6224 C.ar    1  UNL1        0.0048
     34 C         139.3793  139.4439  160.1908 C.ar    1  UNL1        0.0047
     35 C         140.8799  140.5997  163.6784 C.ar    1  UNL1        0.2296
     36 N         140.2689  141.8423  164.2551 N.ar    1  UNL1       -0.2082
     37 C         140.5991  141.8853  165.7177 C.ar    1  UNL1        0.1192
     38 C         140.2628  142.8747  166.7938 C.ar    1  UNL1        0.0326
     39 C         140.7417  142.6480  168.1972 C.ar    1  UNL1        0.0698
     40 C         141.5566  141.4320  168.5244 C.ar    1  UNL1        0.0091
     41 C         141.8929  140.4426  167.4482 C.ar    1  UNL1        0.0143
     42 C         141.4141  140.6693  166.0449 C.ar    1  UNL1        0.1607
     43 O         141.5876  139.8747  164.7845 O.2     1  UNL1       -0.4349
     44 C         142.7079  139.2266  167.7755 C.3     1  UNL1        0.0254
     45 C         143.4124  138.4794  166.6821 C.3     1  UNL1        0.0048
     46 C         142.8183  138.7577  169.1961 C.3     1  UNL1        0.0048
     47 C         140.4055  143.6374  169.2734 C.1     1  UNL1        0.1005
     48 N         140.0692  144.6268  170.3495 N.1     1  UNL1       -0.1908
@<TRIPOS>BOND
     1    22    23    1
     2    23    24    1
     3    23    21    1
     4    21    14    1
     5    14    15   ar
     6    15    16   ar
     7    16    17   ar
     8    17    18    1
     9    17    19   ar
    10    19    20   ar
    11    20     8    1
    12     8     9   ar
    13     9    10   ar
    14    10    11   ar
    15    11     2    1
    16     2     3    1
    17     3     4    1
    18     4     1    1
    19     1    25    1
    20    25    26   am
    21    26    27    2
    22    26    29    1
    23    29    30   ar
    24    30    31   ar
    25    31    32   ar
    26    32    35    1
    27    35    36   ar
    28    36    37   ar
    29    37    38   ar
    30    38    39   ar
    31    39    47    1
    32    47    48    3
    33    39    40   ar
    34    40    41   ar
    35    41    44    1
    36    44    45    1
    37    44    46    1
    38    41    42   ar
    39    42    43   ar
    40    32    33   ar
    41    33    34   ar
    42     4     5    1
    43     5     6    1
    44     6     7    2
    45    11    12   ar
    46    12    13   ar
    47    20    14   ar
    48    13     8   ar
    49     6     2   am
    50    34    29   ar
    51    43    35   ar
    52    42    37   ar
    53    25    28    1
@<TRIPOS>MOLECULE
*****
 48 53 0 0 0
SMALL
GASTEIGER

@<TRIPOS>ATOM
      1 C         139.7427  140.2623  157.4094 C.3     1  UNL1        0.1355
      2 N         139.8450  139.7310  161.2530 N.am    1  UNL1       -0.2059
      3 C         140.3818  140.3630  160.0030 C.3     1  UNL1        0.1483
      4 C         139.5548  139.8812  158.8481 C.3     1  UNL1        0.2101
      5 O         138.5069  138.9515  159.3842 O.3     1  UNL1       -0.4345
      6 C         138.6863  138.8587  160.8706 C.2     1  UNL1        0.4098
      7 O         137.8532  138.0377  161.8096 O.2     1  UNL1       -0.2258
      8 C         141.4323  140.3445  165.4188 C.ar    1  UNL1        0.0223
      9 C         140.0012  140.6676  165.1064 C.ar    1  UNL1        0.0045
     10 C         139.4721  140.4631  163.7178 C.ar    1  UNL1        0.0348
     11 C         140.3741  139.9355  162.6415 C.ar    1  UNL1        0.1400
     12 N         141.8052  139.6124  162.9540 N.ar    1  UNL1       -0.2287
     13 C         142.3343  139.8169  164.3427 C.ar    1  UNL1        0.1004
     14 C         142.6755  141.8205  167.1583 C.ar    1  UNL1        0.1385
     15 C         143.2046  142.0250  168.5469 C.ar    1  UNL1        0.0392
     16 C         143.0196  140.9579  169.5846 C.ar    1  UNL1        0.0327
     17 C         142.3055  139.6863  169.2338 C.ar    1  UNL1        0.1403
     18 F         142.1204  138.6192  170.2717 F       1  UNL1       -0.2042
     19 C         141.7764  139.4818  167.8452 C.ar    1  UNL1        0.0327
     20 C         141.9614  140.5490  166.8074 C.ar    1  UNL1        0.0377
     21 O         142.8606  142.8876  166.1204 O.3     1  UNL1       -0.4792
     22 C         145.0836  144.2195  165.9351 C.3     1  UNL1        0.0472
     23 C         144.2041  143.0909  165.4850 C.3     1  UNL1        0.1661
     24 C         144.6680  142.1655  164.3994 C.3     1  UNL1        0.0472
     25 N         139.9097  141.7042  157.0312 N.am    1  UNL1       -0.2975
     26 C         138.7023  142.5628  156.7969 C.2     1  UNL1        0.2459
     27 O         137.3278  141.9795  156.9410 O.2     1  UNL1       -0.2701
     28 H         140.8118  142.0871  156.9366 H       1  UNL1        0.1499
     29 C         138.8693  144.0047  156.4187 C.ar    1  UNL1        0.0534
     30 C         137.9593  144.6228  155.3990 C.ar    1  UNL1        0.0047
     31 C         138.1262  146.0647  155.0206 C.ar    1  UNL1        0.0048
     32 C         139.2032  146.8885  155.6621 C.ar    1  UNL1        0.0536
     33 C         140.1132  146.2703  156.6818 C.ar    1  UNL1        0.0048
     34 C         139.9462  144.8284  157.0601 C.ar    1  UNL1        0.0047
     35 C         139.3702  148.3303  155.2838 C.ar    1  UNL1        0.2296
     36 N         138.4239  149.4450  155.6186 N.ar    1  UNL1       -0.2082
     37 C         138.9818  150.7142  155.0461 C.ar    1  UNL1        0.1192
     38 C         138.4809  152.1280  155.0628 C.ar    1  UNL1        0.0326
     39 C         139.2711  153.2116  154.3909 C.ar    1  UNL1        0.0698
     40 C         140.5620  152.8814  153.7023 C.ar    1  UNL1        0.0091
     41 C         141.0629  151.4676  153.6855 C.ar    1  UNL1        0.0143
     42 C         140.2728  150.3840  154.3574 C.ar    1  UNL1        0.1607
     43 O         140.5129  148.9107  154.5044 O.2     1  UNL1       -0.4349
     44 C         142.3539  151.1374  152.9968 C.3     1  UNL1        0.0254
     45 C         142.3975  150.0470  151.9678 C.3     1  UNL1        0.0048
     46 C         143.6014  151.8978  153.3373 C.3     1  UNL1        0.0048
     47 C         138.7702  154.6255  154.4076 C.1     1  UNL1        0.1005
     48 N         138.2694  156.0393  154.4244 N.1     1  UNL1       -0.1908
@<TRIPOS>BOND
     1    22    23    1
     2    23    24    1
     3    23    21    1
     4    21    14    1
     5    14    15   ar
     6    15    16   ar
     7    16    17   ar
     8    17    18    1
     9    17    19   ar
    10    19    20   ar
    11    20     8    1
    12     8     9   ar
    13     9    10   ar
    14    10    11   ar
    15    11     2    1
    16     2     3    1
    17     3     4    1
    18     4     1    1
    19     1    25    1
    20    25    26   am
    21    26    27    2
    22    26    29    1
    23    29    30   ar
    24    30    31   ar
    25    31    32   ar
    26    32    35    1
    27    35    36   ar
    28    36    37   ar
    29    37    38   ar
    30    38    39   ar
    31    39    47    1
    32    47    48    3
    33    39    40   ar
    34    40    41   ar
    35    41    44    1
    36    44    45    1
    37    44    46    1
    38    41    42   ar
    39    42    43   ar
    40    32    33   ar
    41    33    34   ar
    42     4     5    1
    43     5     6    1
    44     6     7    2
    45    11    12   ar
    46    12    13   ar
    47    20    14   ar
    48    13     8   ar
    49     6     2   am
    50    34    29   ar
    51    43    35   ar
    52    42    37   ar
    53    25    28    1
@<TRIPOS>MOLECULE
*****
 48 53 0 0 0
SMALL
GASTEIGER

@<TRIPOS>ATOM
      1 C         141.8990  138.1837  154.6772 C.3     1  UNL1        0.1355
      2 N         142.5097  134.3512  154.7412 N.am    1  UNL1       -0.2059
      3 C         142.4853  135.6855  155.4259 C.3     1  UNL1        0.1483
      4 C         142.0584  136.7143  154.4212 C.3     1  UNL1        0.2101
      5 O         141.8190  136.0157  153.1156 O.3     1  UNL1       -0.4345
      6 C         142.0979  134.5552  153.3134 C.2     1  UNL1        0.4098
      7 O         141.9849  133.4864  152.2670 O.2     1  UNL1       -0.2258
      8 C         143.6229  130.4251  156.6378 C.ar    1  UNL1        0.0223
      9 C         144.5845  131.5757  156.6757 C.ar    1  UNL1        0.0045
     10 C         144.2135  132.8844  156.0435 C.ar    1  UNL1        0.0348
     11 C         142.8808  133.0425  155.3734 C.ar    1  UNL1        0.1400
     12 N         141.9191  131.8919  155.3355 N.ar    1  UNL1       -0.2287
     13 C         142.2902  130.5832  155.9677 C.ar    1  UNL1        0.1004
     14 C         144.9474  128.1910  156.5741 C.ar    1  UNL1        0.1385
     15 C         145.3185  126.8823  157.2063 C.ar    1  UNL1        0.0392
     16 C         144.7361  126.4991  158.5343 C.ar    1  UNL1        0.0327
     17 C         143.7825  127.4245  159.2302 C.ar    1  UNL1        0.1403
     18 F         143.2001  127.0413  160.5584 F       1  UNL1       -0.2042
     19 C         143.4115  128.7332  158.5981 C.ar    1  UNL1        0.0327
     20 C         143.9940  129.1164  157.2699 C.ar    1  UNL1        0.0377
     21 O         145.5299  128.5742  155.2460 O.3     1  UNL1       -0.4792
     22 C         144.2504  127.0044  153.6185 C.3     1  UNL1        0.0472
     23 C         144.7319  128.3752  153.9915 C.3     1  UNL1        0.1661
     24 C         144.4154  129.5469  153.1101 C.3     1  UNL1        0.0472
     25 N         141.6826  138.6823  156.0753 N.am    1  UNL1       -0.2975
     26 C         142.8577  138.9238  156.9757 C.2     1  UNL1        0.2459
     27 O         144.2492  138.6669  156.4780 O.2     1  UNL1       -0.2701
     28 H         140.7693  138.8510  156.4019 H       1  UNL1        0.1499
     29 C         142.6413  139.4224  158.3737 C.ar    1  UNL1        0.0534
     30 C         142.1984  140.8367  158.6055 C.ar    1  UNL1        0.0047
     31 C         141.9820  141.3353  160.0036 C.ar    1  UNL1        0.0048
     32 C         142.2084  140.4196  161.1699 C.ar    1  UNL1        0.0536
     33 C         142.6513  139.0054  160.9381 C.ar    1  UNL1        0.0048
     34 C         142.8677  138.5067  159.5400 C.ar    1  UNL1        0.0047
     35 C         141.9920  140.9182  162.5680 C.ar    1  UNL1        0.2296
     36 N         142.9076  140.6955  163.7350 N.ar    1  UNL1       -0.2082
     37 C         142.3034  141.3667  164.9327 C.ar    1  UNL1        0.1192
     38 C         142.7605  141.4797  166.3569 C.ar    1  UNL1        0.0326
     39 C         141.9285  142.2302  167.3542 C.ar    1  UNL1        0.0698
     40 C         140.6396  142.8677  166.9274 C.ar    1  UNL1        0.0091
     41 C         140.1825  142.7547  165.5032 C.ar    1  UNL1        0.0143
     42 C         141.0144  142.0042  164.5059 C.ar    1  UNL1        0.1607
     43 O         140.8220  141.7270  163.0443 O.2     1  UNL1       -0.4349
     44 C         138.8936  143.3922  165.0763 C.3     1  UNL1        0.0254
     45 C         138.6750  144.8602  165.2932 C.3     1  UNL1        0.0048
     46 C         137.8231  142.5615  164.4325 C.3     1  UNL1        0.0048
     47 C         142.3855  142.3433  168.7785 C.1     1  UNL1        0.1005
     48 N         142.8426  142.4563  170.2027 N.1     1  UNL1       -0.1908
@<TRIPOS>BOND
     1    22    23    1
     2    23    24    1
     3    23    21    1
     4    21    14    1
     5    14    15   ar
     6    15    16   ar
     7    16    17   ar
     8    17    18    1
     9    17    19   ar
    10    19    20   ar
    11    20     8    1
    12     8     9   ar
    13     9    10   ar
    14    10    11   ar
    15    11     2    1
    16     2     3    1
    17     3     4    1
    18     4     1    1
    19     1    25    1
    20    25    26   am
    21    26    27    2
    22    26    29    1
    23    29    30   ar
    24    30    31   ar
    25    31    32   ar
    26    32    35    1
    27    35    36   ar
    28    36    37   ar
    29    37    38   ar
    30    38    39   ar
    31    39    47    1
    32    47    48    3
    33    39    40   ar
    34    40    41   ar
    35    41    44    1
    36    44    45    1
    37    44    46    1
    38    41    42   ar
    39    42    43   ar
    40    32    33   ar
    41    33    34   ar
    42     4     5    1
    43     5     6    1
    44     6     7    2
    45    11    12   ar
    46    12    13   ar
    47    20    14   ar
    48    13     8   ar
    49     6     2   am
    50    34    29   ar
    51    43    35   ar
    52    42    37   ar
    53    25    28    1
@<TRIPOS>MOLECULE
*****
 48 53 0 0 0
SMALL
GASTEIGER

@<TRIPOS>ATOM
      1 C         138.8330  141.4619  155.5571 C.3     1  UNL1        0.1355
      2 N         135.0405  140.6771  155.2996 N.am    1  UNL1       -0.2059
      3 C         136.3191  140.7207  156.0827 C.3     1  UNL1        0.1483
      4 C         137.3955  141.2521  155.1832 C.3     1  UNL1        0.2101
      5 O         136.7821  141.5369  153.8443 O.3     1  UNL1       -0.4345
      6 C         135.3265  141.1815  153.9163 C.2     1  UNL1        0.4098
      7 O         134.3318  141.3083  152.8008 O.2     1  UNL1       -0.2258
      8 C         131.0471  139.2786  156.8317 C.ar    1  UNL1        0.0223
      9 C         131.1803  140.6419  156.2205 C.ar    1  UNL1        0.0045
     10 C         132.5114  141.1081  155.7098 C.ar    1  UNL1        0.0348
     11 C         133.7094  140.2109  155.8103 C.ar    1  UNL1        0.1400
     12 N         133.5762  138.8476  156.4216 N.ar    1  UNL1       -0.2287
     13 C         132.2450  138.3814  156.9323 C.ar    1  UNL1        0.1004
     14 C         128.6300  138.4417  156.3764 C.ar    1  UNL1        0.1385
     15 C         127.2990  137.9755  156.8871 C.ar    1  UNL1        0.0392
     16 C         127.0538  137.8800  158.3638 C.ar    1  UNL1        0.0327
     17 C         128.1397  138.2507  159.3299 C.ar    1  UNL1        0.1403
     18 F         127.8946  138.1552  160.8066 F       1  UNL1       -0.2042
     19 C         129.4708  138.7169  158.8192 C.ar    1  UNL1        0.0327
     20 C         129.7160  138.8124  157.3424 C.ar    1  UNL1        0.0377
     21 O         128.8752  138.5372  154.8997 O.3     1  UNL1       -0.4792
     22 C         127.9094  140.9332  154.6229 C.3     1  UNL1        0.0472
     23 C         128.1352  139.5529  154.0807 C.3     1  UNL1        0.1661
     24 C         127.6209  139.1885  152.7196 C.3     1  UNL1        0.0472
     25 N         139.2756  141.2625  156.9763 N.am    1  UNL1       -0.2975
     26 C         138.9309  142.2834  158.0198 C.2     1  UNL1        0.2459
     27 O         138.1436  143.5036  157.6441 O.2     1  UNL1       -0.2701
     28 H         139.7924  140.4616  157.2230 H       1  UNL1        0.1499
     29 C         139.3735  142.0840  159.4391 C.ar    1  UNL1        0.0534
     30 C         138.4613  142.4596  160.5690 C.ar    1  UNL1        0.0047
     31 C         138.9038  142.2603  161.9884 C.ar    1  UNL1        0.0048
     32 C         140.2587  141.6853  162.2777 C.ar    1  UNL1        0.0536
     33 C         141.1709  141.3097  161.1478 C.ar    1  UNL1        0.0048
     34 C         140.7284  141.5090  159.7285 C.ar    1  UNL1        0.0047
     35 C         140.7013  141.4859  163.6970 C.ar    1  UNL1        0.2296
     36 N         140.1725  142.2155  164.8962 N.ar    1  UNL1       -0.2082
     37 C         140.8949  141.7024  166.1066 C.ar    1  UNL1        0.1192
     38 C         140.7906  142.0531  167.5613 C.ar    1  UNL1        0.0326
     39 C         141.6615  141.3570  168.5648 C.ar    1  UNL1        0.0698
     40 C         142.6366  140.3104  168.1136 C.ar    1  UNL1        0.0091
     41 C         142.7409  139.9597  166.6590 C.ar    1  UNL1        0.0143
     42 C         141.8700  140.6557  165.6554 C.ar    1  UNL1        0.1607
     43 O         141.7504  140.5219  164.1662 O.2     1  UNL1       -0.4349
     44 C         143.7160  138.9130  166.2078 C.3     1  UNL1        0.0254
     45 C         143.8422  137.6272  166.9700 C.3     1  UNL1        0.0048
     46 C         144.5650  139.1521  164.9944 C.3     1  UNL1        0.0048
     47 C         141.5573  141.7077  170.0196 C.1     1  UNL1        0.1005
     48 N         141.4531  142.0583  171.4743 N.1     1  UNL1       -0.1908
@<TRIPOS>BOND
     1    22    23    1
     2    23    24    1
     3    23    21    1
     4    21    14    1
     5    14    15   ar
     6    15    16   ar
     7    16    17   ar
     8    17    18    1
     9    17    19   ar
    10    19    20   ar
    11    20     8    1
    12     8     9   ar
    13     9    10   ar
    14    10    11   ar
    15    11     2    1
    16     2     3    1
    17     3     4    1
    18     4     1    1
    19     1    25    1
    20    25    26   am
    21    26    27    2
    22    26    29    1
    23    29    30   ar
    24    30    31   ar
    25    31    32   ar
    26    32    35    1
    27    35    36   ar
    28    36    37   ar
    29    37    38   ar
    30    38    39   ar
    31    39    47    1
    32    47    48    3
    33    39    40   ar
    34    40    41   ar
    35    41    44    1
    36    44    45    1
    37    44    46    1
    38    41    42   ar
    39    42    43   ar
    40    32    33   ar
    41    33    34   ar
    42     4     5    1
    43     5     6    1
    44     6     7    2
    45    11    12   ar
    46    12    13   ar
    47    20    14   ar
    48    13     8   ar
    49     6     2   am
    50    34    29   ar
    51    43    35   ar
    52    42    37   ar
    53    25    28    1
@<TRIPOS>MOLECULE
*****
 48 53 0 0 0
SMALL
GASTEIGER

@<TRIPOS>ATOM
      1 C         141.4812  139.6014  157.3841 C.3     1  UNL1        0.1355
      2 N         142.3572  139.2322  161.1473 N.am    1  UNL1       -0.2059
      3 C         141.4378  139.6926  160.0552 C.3     1  UNL1        0.1483
      4 C         142.0609  139.3282  158.7403 C.3     1  UNL1        0.2101
      5 O         143.3655  138.6426  159.0198 O.3     1  UNL1       -0.4345
      6 C         143.5486  138.5833  160.5074 C.2     1  UNL1        0.4098
      7 O         144.7178  137.9809  161.2285 O.2     1  UNL1       -0.2258
      8 C         141.6633  139.7134  165.5674 C.ar    1  UNL1        0.0223
      9 C         142.0566  138.3771  165.0110 C.ar    1  UNL1        0.0045
     10 C         142.2880  138.2167  163.5377 C.ar    1  UNL1        0.0348
     11 C         142.1259  139.3926  162.6206 C.ar    1  UNL1        0.1400
     12 N         141.7326  140.7290  163.1769 N.ar    1  UNL1       -0.2287
     13 C         141.5012  140.8893  164.6504 C.ar    1  UNL1        0.1004
     14 C         140.0329  139.9336  167.5781 C.ar    1  UNL1        0.1385
     15 C         139.8016  140.0940  169.0514 C.ar    1  UNL1        0.0392
     16 C         140.9693  140.1946  169.9874 C.ar    1  UNL1        0.0327
     17 C         142.3685  140.1348  169.4500 C.ar    1  UNL1        0.1403
     18 F         143.5363  140.2354  170.3860 F       1  UNL1       -0.2042
     19 C         142.5998  139.9744  167.9767 C.ar    1  UNL1        0.0327
     20 C         141.4320  139.8738  167.0407 C.ar    1  UNL1        0.0377
     21 O         138.8650  139.8330  166.6421 O.3     1  UNL1       -0.4792
     22 C         138.5999  137.7148  165.1611 C.3     1  UNL1        0.0472
     23 C         138.2249  138.5016  166.3820 C.3     1  UNL1        0.1661
     24 C         137.2098  137.9569  167.3426 C.3     1  UNL1        0.0472
     25 N         140.0157  139.8861  157.2383 N.am    1  UNL1       -0.2975
     26 C         139.3150  139.5707  155.9501 C.2     1  UNL1        0.2459
     27 O         140.0798  138.9708  154.8076 O.2     1  UNL1       -0.2701
     28 H         139.5137  140.2798  157.9881 H       1  UNL1        0.1499
     29 C         137.8495  139.8554  155.8043 C.ar    1  UNL1        0.0534
     30 C         137.0761  139.2463  154.6726 C.ar    1  UNL1        0.0047
     31 C         135.6106  139.5309  154.5267 C.ar    1  UNL1        0.0048
     32 C         134.9184  140.4246  155.5127 C.ar    1  UNL1        0.0536
     33 C         135.6918  141.0337  156.6445 C.ar    1  UNL1        0.0048
     34 C         137.1574  140.7491  156.7903 C.ar    1  UNL1        0.0047
     35 C         133.4529  140.7093  155.3669 C.ar    1  UNL1        0.2296
     36 N         132.8380  141.7144  154.4387 N.ar    1  UNL1       -0.2082
     37 C         131.3501  141.6650  154.6220 C.ar    1  UNL1        0.1192
     38 C         130.2333  142.4294  153.9750 C.ar    1  UNL1        0.0326
     39 C         128.8117  142.1580  154.3696 C.ar    1  UNL1        0.0698
     40 C         128.5070  141.1224  155.4110 C.ar    1  UNL1        0.0091
     41 C         129.6238  140.3581  156.0579 C.ar    1  UNL1        0.0143
     42 C         131.0454  140.6294  155.6634 C.ar    1  UNL1        0.1607
     43 O         132.3450  140.0387  156.1238 O.2     1  UNL1       -0.4349
     44 C         129.3191  139.3225  157.0994 C.3     1  UNL1        0.0254
     45 C         129.7235  137.8950  156.8784 C.3     1  UNL1        0.0048
     46 C         128.6100  139.7143  158.3618 C.3     1  UNL1        0.0048
     47 C         127.6948  142.9223  153.7226 C.1     1  UNL1        0.1005
     48 N         126.5780  143.6866  153.0756 N.1     1  UNL1       -0.1908
@<TRIPOS>BOND
     1    22    23    1
     2    23    24    1
     3    23    21    1
     4    21    14    1
     5    14    15   ar
     6    15    16   ar
     7    16    17   ar
     8    17    18    1
     9    17    19   ar
    10    19    20   ar
    11    20     8    1
    12     8     9   ar
    13     9    10   ar
    14    10    11   ar
    15    11     2    1
    16     2     3    1
    17     3     4    1
    18     4     1    1
    19     1    25    1
    20    25    26   am
    21    26    27    2
    22    26    29    1
    23    29    30   ar
    24    30    31   ar
    25    31    32   ar
    26    32    35    1
    27    35    36   ar
    28    36    37   ar
    29    37    38   ar
    30    38    39   ar
    31    39    47    1
    32    47    48    3
    33    39    40   ar
    34    40    41   ar
    35    41    44    1
    36    44    45    1
    37    44    46    1
    38    41    42   ar
    39    42    43   ar
    40    32    33   ar
    41    33    34   ar
    42     4     5    1
    43     5     6    1
    44     6     7    2
    45    11    12   ar
    46    12    13   ar
    47    20    14   ar
    48    13     8   ar
    49     6     2   am
    50    34    29   ar
    51    43    35   ar
    52    42    37   ar
    53    25    28    1
@<TRIPOS>MOLECULE
*****
 48 53 0 0 0
SMALL
GASTEIGER

@<TRIPOS>ATOM
      1 C         143.3192  141.6054  155.1119 C.3     1  UNL1        0.1355
      2 N         146.9038  142.8226  154.2549 N.am    1  UNL1       -0.2059
      3 C         145.9667  141.7789  154.7862 C.3     1  UNL1        0.1483
      4 C         144.5702  142.3181  154.6909 C.3     1  UNL1        0.2101
      5 O         144.6443  143.6951  154.1007 O.3     1  UNL1       -0.4345
      6 C         146.0866  144.0070  153.8312 C.2     1  UNL1        0.4098
      7 O         146.6183  145.2796  153.2416 O.2     1  UNL1       -0.2258
      8 C         151.3811  142.4639  153.9802 C.ar    1  UNL1        0.0223
      9 C         150.6414  141.7861  155.0953 C.ar    1  UNL1        0.0045
     10 C         149.1490  141.9057  155.1869 C.ar    1  UNL1        0.0348
     11 C         148.3962  142.7031  154.1633 C.ar    1  UNL1        0.1400
     12 N         149.1359  143.3809  153.0482 N.ar    1  UNL1       -0.2287
     13 C         150.6284  143.2613  152.9566 C.ar    1  UNL1        0.1004
     14 C         153.7431  143.5116  154.2507 C.ar    1  UNL1        0.1385
     15 C         155.2355  143.3921  154.1591 C.ar    1  UNL1        0.0392
     16 C         155.8583  142.1052  153.7055 C.ar    1  UNL1        0.0327
     17 C         154.9888  140.9378  153.3434 C.ar    1  UNL1        0.1403
     18 F         155.6117  139.6509  152.8897 F       1  UNL1       -0.2042
     19 C         153.4964  141.0574  153.4349 C.ar    1  UNL1        0.0327
     20 C         152.8735  142.3443  153.8886 C.ar    1  UNL1        0.0377
     21 O         153.1202  144.7986  154.7044 O.3     1  UNL1       -0.4792
     22 C         154.5598  146.8688  155.3307 C.3     1  UNL1        0.0472
     23 C         153.8053  145.6389  155.7410 C.3     1  UNL1        0.1661
     24 C         153.7360  145.2494  157.1879 C.3     1  UNL1        0.0472
     25 N         142.8648  141.6682  156.5400 N.am    1  UNL1       -0.2975
     26 C         143.3316  140.6345  157.5216 C.2     1  UNL1        0.2459
     27 O         144.2527  139.5380  157.0751 O.2     1  UNL1       -0.2701
     28 H         142.2602  142.3878  156.8331 H       1  UNL1        0.1499
     29 C         142.8772  140.6972  158.9497 C.ar    1  UNL1        0.0534
     30 C         143.7050  140.0642  160.0287 C.ar    1  UNL1        0.0047
     31 C         143.2506  140.1269  161.4569 C.ar    1  UNL1        0.0048
     32 C         141.9684  140.8226  161.8061 C.ar    1  UNL1        0.0536
     33 C         141.1406  141.4555  160.7271 C.ar    1  UNL1        0.0048
     34 C         141.5949  141.3928  159.2989 C.ar    1  UNL1        0.0047
     35 C         141.5140  140.8853  163.2342 C.ar    1  UNL1        0.2296
     36 N         141.9446  141.8988  164.2527 N.ar    1  UNL1       -0.2082
     37 C         141.2459  141.5854  165.5425 C.ar    1  UNL1        0.1192
     38 C         141.2835  142.2433  166.8900 C.ar    1  UNL1        0.0326
     39 C         140.4588  141.6939  168.0161 C.ar    1  UNL1        0.0698
     40 C         139.5964  140.4868  167.7947 C.ar    1  UNL1        0.0091
     41 C         139.5588  139.8289  166.4473 C.ar    1  UNL1        0.0143
     42 C         140.3835  140.3782  165.3212 C.ar    1  UNL1        0.1607
     43 O         140.5492  139.9455  163.8945 O.2     1  UNL1       -0.4349
     44 C         138.6964  138.6217  166.2259 C.3     1  UNL1        0.0254
     45 C         139.0311  137.6513  165.1321 C.3     1  UNL1        0.0048
     46 C         137.4993  138.3849  167.0983 C.3     1  UNL1        0.0048
     47 C         140.4964  142.3519  169.3637 C.1     1  UNL1        0.1005
     48 N         140.5340  143.0098  170.7112 N.1     1  UNL1       -0.1908
@<TRIPOS>BOND
     1    22    23    1
     2    23    24    1
     3    23    21    1
     4    21    14    1
     5    14    15   ar
     6    15    16   ar
     7    16    17   ar
     8    17    18    1
     9    17    19   ar
    10    19    20   ar
    11    20     8    1
    12     8     9   ar
    13     9    10   ar
    14    10    11   ar
    15    11     2    1
    16     2     3    1
    17     3     4    1
    18     4     1    1
    19     1    25    1
    20    25    26   am
    21    26    27    2
    22    26    29    1
    23    29    30   ar
    24    30    31   ar
    25    31    32   ar
    26    32    35    1
    27    35    36   ar
    28    36    37   ar
    29    37    38   ar
    30    38    39   ar
    31    39    47    1
    32    47    48    3
    33    39    40   ar
    34    40    41   ar
    35    41    44    1
    36    44    45    1
    37    44    46    1
    38    41    42   ar
    39    42    43   ar
    40    32    33   ar
    41    33    34   ar
    42     4     5    1
    43     5     6    1
    44     6     7    2
    45    11    12   ar
    46    12    13   ar
    47    20    14   ar
    48    13     8   ar
    49     6     2   am
    50    34    29   ar
    51    43    35   ar
    52    42    37   ar
    53    25    28    1
@<TRIPOS>MOLECULE
*****
 48 53 0 0 0
SMALL
GASTEIGER

@<TRIPOS>ATOM
      1 C         143.8498  140.9412  153.9486 C.3     1  UNL1        0.1355
      2 N         147.3896  142.4998  153.6223 N.am    1  UNL1       -0.2059
      3 C         146.4932  141.3385  153.9349 C.3     1  UNL1        0.1483
      4 C         145.0737  141.7843  153.7445 C.3     1  UNL1        0.2101
      5 O         145.0928  143.2211  153.3142 O.3     1  UNL1       -0.4345
      6 C         146.5242  143.6633  153.2387 C.2     1  UNL1        0.4098
      7 O         147.0055  145.0293  152.8482 O.2     1  UNL1       -0.2258
      8 C         151.8860  142.4942  153.8035 C.ar    1  UNL1        0.0223
      9 C         151.0880  141.9720  154.9614 C.ar    1  UNL1        0.0045
     10 C         149.5893  141.9739  154.9010 C.ar    1  UNL1        0.0348
     11 C         148.8883  142.4979  153.6827 C.ar    1  UNL1        0.1400
     12 N         149.6863  143.0201  152.5248 N.ar    1  UNL1       -0.2287
     13 C         151.1851  143.0182  152.5852 C.ar    1  UNL1        0.1004
     14 C         154.1185  143.7185  154.3197 C.ar    1  UNL1        0.1385
     15 C         155.6173  143.7167  154.3801 C.ar    1  UNL1        0.0392
     16 C         156.3823  142.4886  153.9847 C.ar    1  UNL1        0.0327
     17 C         155.6485  141.2623  153.5288 C.ar    1  UNL1        0.1403
     18 F         156.4135  140.0341  153.1334 F       1  UNL1       -0.2042
     19 C         154.1498  141.2641  153.4685 C.ar    1  UNL1        0.0327
     20 C         153.3847  142.4923  153.8639 C.ar    1  UNL1        0.0377
     21 O         153.3535  144.9467  154.7151 O.3     1  UNL1       -0.4792
     22 C         153.5533  145.3632  157.2719 C.3     1  UNL1        0.0472
     23 C         153.8293  145.7903  155.8607 C.3     1  UNL1        0.1661
     24 C         154.5810  147.0608  155.5950 C.3     1  UNL1        0.0472
     25 N         143.1798  140.9041  155.2901 N.am    1  UNL1       -0.2975
     26 C         143.6889  139.9812  156.3573 C.2     1  UNL1        0.2459
     27 O         144.8680  139.0955  156.0832 O.2     1  UNL1       -0.2701
     28 H         142.4059  141.4854  155.4700 H       1  UNL1        0.1499
     29 C         143.0188  139.9441  157.6989 C.ar    1  UNL1        0.0534
     30 C         141.6636  139.3178  157.8432 C.ar    1  UNL1        0.0047
     31 C         140.9934  139.2806  159.1847 C.ar    1  UNL1        0.0048
     32 C         141.6786  139.8699  160.3819 C.ar    1  UNL1        0.0536
     33 C         143.0339  140.4963  160.2375 C.ar    1  UNL1        0.0048
     34 C         143.7040  140.5335  158.8960 C.ar    1  UNL1        0.0047
     35 C         141.0086  139.8328  161.7234 C.ar    1  UNL1        0.2296
     36 N         140.1155  138.7407  162.2330 N.ar    1  UNL1       -0.2082
     37 C         139.6690  139.1143  163.6154 C.ar    1  UNL1        0.1192
     38 C         138.7801  138.4207  164.6047 C.ar    1  UNL1        0.0326
     39 C         138.5084  139.0502  165.9390 C.ar    1  UNL1        0.0698
     40 C         139.1255  140.3731  166.2837 C.ar    1  UNL1        0.0091
     41 C         140.0143  141.0667  165.2943 C.ar    1  UNL1        0.0143
     42 C         140.2861  140.4373  163.9602 C.ar    1  UNL1        0.1607
     43 O         141.1140  140.8814  162.7908 O.2     1  UNL1       -0.4349
     44 C         140.6314  142.3897  165.6391 C.3     1  UNL1        0.0254
     45 C         139.7702  143.6127  165.7508 C.3     1  UNL1        0.0048
     46 C         142.1099  142.4897  165.8722 C.3     1  UNL1        0.0048
     47 C         137.6196  138.3565  166.9284 C.1     1  UNL1        0.1005
     48 N         136.7308  137.6629  167.9178 N.1     1  UNL1       -0.1908
@<TRIPOS>BOND
     1    22    23    1
     2    23    24    1
     3    23    21    1
     4    21    14    1
     5    14    15   ar
     6    15    16   ar
     7    16    17   ar
     8    17    18    1
     9    17    19   ar
    10    19    20   ar
    11    20     8    1
    12     8     9   ar
    13     9    10   ar
    14    10    11   ar
    15    11     2    1
    16     2     3    1
    17     3     4    1
    18     4     1    1
    19     1    25    1
    20    25    26   am
    21    26    27    2
    22    26    29    1
    23    29    30   ar
    24    30    31   ar
    25    31    32   ar
    26    32    35    1
    27    35    36   ar
    28    36    37   ar
    29    37    38   ar
    30    38    39   ar
    31    39    47    1
    32    47    48    3
    33    39    40   ar
    34    40    41   ar
    35    41    44    1
    36    44    45    1
    37    44    46    1
    38    41    42   ar
    39    42    43   ar
    40    32    33   ar
    41    33    34   ar
    42     4     5    1
    43     5     6    1
    44     6     7    2
    45    11    12   ar
    46    12    13   ar
    47    20    14   ar
    48    13     8   ar
    49     6     2   am
    50    34    29   ar
    51    43    35   ar
    52    42    37   ar
    53    25    28    1
@<TRIPOS>MOLECULE
*****
 48 53 0 0 0
SMALL
GASTEIGER

@<TRIPOS>ATOM
      1 C         141.6090  144.0138  156.3424 C.3     1  UNL1        0.1355
      2 N         139.7679  147.1057  154.8876 N.am    1  UNL1       -0.2059
      3 C         141.0004  146.4568  155.4441 C.3     1  UNL1        0.1483
      4 C         140.6683  145.0296  155.7647 C.3     1  UNL1        0.2101
      5 O         139.2306  144.7965  155.4064 O.3     1  UNL1       -0.4345
      6 C         138.6740  146.0796  154.8642 C.2     1  UNL1        0.4098
      7 O         137.2702  146.2982  154.3832 O.2     1  UNL1       -0.2258
      8 C         139.4138  151.3804  153.5268 C.ar    1  UNL1        0.0223
      9 C         139.8597  150.3210  152.5630 C.ar    1  UNL1        0.0045
     10 C         139.9777  148.8961  153.0166 C.ar    1  UNL1        0.0348
     11 C         139.6498  148.5306  154.4340 C.ar    1  UNL1        0.1400
     12 N         139.2040  149.5900  155.3978 N.ar    1  UNL1       -0.2287
     13 C         139.0860  151.0149  154.9441 C.ar    1  UNL1        0.1004
     14 C         140.4635  153.4837  152.4204 C.ar    1  UNL1        0.1385
     15 C         140.3455  154.9086  151.9668 C.ar    1  UNL1        0.0392
     16 C         139.0598  155.6550  152.1660 C.ar    1  UNL1        0.0327
     17 C         137.8921  154.9767  152.8189 C.ar    1  UNL1        0.1403
     18 F         136.6064  155.7231  153.0181 F       1  UNL1       -0.2042
     19 C         138.0101  153.5518  153.2724 C.ar    1  UNL1        0.0327
     20 C         139.2958  152.8053  153.0732 C.ar    1  UNL1        0.0377
     21 O         141.7492  152.7372  152.2211 O.3     1  UNL1       -0.4792
     22 C         143.9028  153.8979  153.0959 C.3     1  UNL1        0.0472
     23 C         142.8445  152.8446  153.2403 C.3     1  UNL1        0.1661
     24 C         142.8816  151.8988  154.4040 C.3     1  UNL1        0.0472
     25 N         141.3771  143.4771  157.7238 N.am    1  UNL1       -0.2975
     26 C         141.5358  144.3761  158.9140 C.2     1  UNL1        0.2459
     27 O         141.9263  145.8117  158.7229 O.2     1  UNL1       -0.2701
     28 H         141.1209  142.5349  157.8492 H       1  UNL1        0.1499
     29 C         141.3040  143.8394  160.2954 C.ar    1  UNL1        0.0534
     30 C         141.2100  142.3592  160.5189 C.ar    1  UNL1        0.0047
     31 C         140.9781  141.8224  161.9002 C.ar    1  UNL1        0.0048
     32 C         140.8403  142.7659  163.0581 C.ar    1  UNL1        0.0536
     33 C         140.9343  144.2462  162.8346 C.ar    1  UNL1        0.0048
     34 C         141.1661  144.7830  161.4532 C.ar    1  UNL1        0.0047
     35 C         140.6085  142.2292  164.4395 C.ar    1  UNL1        0.2296
     36 N         141.1228  142.8270  165.7155 N.ar    1  UNL1       -0.2082
     37 C         140.6538  141.9677  166.8520 C.ar    1  UNL1        0.1192
     38 C         140.8551  142.0674  168.3350 C.ar    1  UNL1        0.0326
     39 C         140.2522  141.0381  169.2445 C.ar    1  UNL1        0.0698
     40 C         139.4481  139.9093  168.6710 C.ar    1  UNL1        0.0091
     41 C         139.2468  139.8096  167.1879 C.ar    1  UNL1        0.0143
     42 C         139.8496  140.8389  166.2784 C.ar    1  UNL1        0.1607
     43 O         139.8216  141.0005  164.7874 O.2     1  UNL1       -0.4349
     44 C         138.4426  138.6808  166.6144 C.3     1  UNL1        0.0254
     45 C         138.8420  138.0641  165.3066 C.3     1  UNL1        0.0048
     46 C         137.2389  138.1685  167.3486 C.3     1  UNL1        0.0048
     47 C         140.4536  141.1377  170.7277 C.1     1  UNL1        0.1005
     48 N         140.6549  141.2373  172.2108 N.1     1  UNL1       -0.1908
@<TRIPOS>BOND
     1    22    23    1
     2    23    24    1
     3    23    21    1
     4    21    14    1
     5    14    15   ar
     6    15    16   ar
     7    16    17   ar
     8    17    18    1
     9    17    19   ar
    10    19    20   ar
    11    20     8    1
    12     8     9   ar
    13     9    10   ar
    14    10    11   ar
    15    11     2    1
    16     2     3    1
    17     3     4    1
    18     4     1    1
    19     1    25    1
    20    25    26   am
    21    26    27    2
    22    26    29    1
    23    29    30   ar
    24    30    31   ar
    25    31    32   ar
    26    32    35    1
    27    35    36   ar
    28    36    37   ar
    29    37    38   ar
    30    38    39   ar
    31    39    47    1
    32    47    48    3
    33    39    40   ar
    34    40    41   ar
    35    41    44    1
    36    44    45    1
    37    44    46    1
    38    41    42   ar
    39    42    43   ar
    40    32    33   ar
    41    33    34   ar
    42     4     5    1
    43     5     6    1
    44     6     7    2
    45    11    12   ar
    46    12    13   ar
    47    20    14   ar
    48    13     8   ar
    49     6     2   am
    50    34    29   ar
    51    43    35   ar
    52    42    37   ar
    53    25    28    1
