@<TRIPOS>MOLECULE
*****
 39 42 0 0 0
SMALL
GASTEIGER

@<TRIPOS>ATOM
      1 C         143.5125  142.7439  163.1027 C.3     1  UNL1        0.0702
      2 C         144.6327  143.3116  162.2823 C.3     1  UNL1        0.0100
      3 C         144.7448  142.4998  161.0260 C.3     1  UNL1        0.0164
      4 C         143.6940  141.4303  161.0699 C.3     1  UNL1        0.0580
      5 C         142.9324  141.5812  162.3533 C.3     1  UNL1        0.0246
      6 N         143.4479  140.3923  160.0154 N.3     1  UNL1       -0.2739
      7 C         142.8708  139.0606  160.3942 C.3     1  UNL1        0.0724
      8 C         142.6247  138.0225  159.3397 C.3     1  UNL1        0.0233
      9 C         142.9558  138.3161  157.9065 C.3     1  UNL1        0.0431
     10 C         143.5330  139.6479  157.5278 C.3     1  UNL1        0.0233
     11 C         143.7790  140.6859  158.5822 C.3     1  UNL1        0.0724
     12 C         142.7098  137.2780  156.8521 C.ar    1  UNL1        0.0620
     13 C         141.3062  136.8732  156.5112 C.ar    1  UNL1        0.0354
     14 C         141.0602  135.8352  155.4568 C.ar    1  UNL1        0.1019
     15 N         142.2176  135.2019  154.7432 N.ar    1  UNL1       -0.2224
     16 C         143.6213  135.6067  155.0841 C.ar    1  UNL1        0.1986
     17 N         143.8673  136.6448  156.1385 N.ar    1  UNL1       -0.2283
     18 C         142.4681  142.4044  164.1243 C.2     1  UNL1        0.2218
     19 O         141.2270  143.2397  164.2342 O.2     1  UNL1       -0.2751
     20 N         142.6646  141.2296  165.0360 N.am    1  UNL1       -0.3004
     21 H         143.4791  140.6813  164.9639 H       1  UNL1        0.1497
     22 C         141.6201  140.8901  166.0576 C.3     1  UNL1        0.1163
     23 C         140.5017  139.9548  165.7046 C.ar    1  UNL1       -0.0027
     24 C         139.5364  139.5072  166.7618 C.ar    1  UNL1        0.0012
     25 C         138.4181  138.5719  166.4088 C.ar    1  UNL1        0.0711
     26 C         138.2651  138.0843  164.9986 C.ar    1  UNL1        0.0077
     27 C         139.2305  138.5318  163.9413 C.ar    1  UNL1        0.0711
     28 C         140.3488  139.4671  164.2944 C.ar    1  UNL1        0.0012
     29 C         137.4527  138.1243  167.4660 C.3     1  UNL1        0.4186
     30 F         136.4873  137.6767  168.5232 F       1  UNL1       -0.1659
     31 F         137.7462  139.3635  168.2586 F       1  UNL1       -0.1659
     32 F         137.1592  136.8851  166.6734 F       1  UNL1       -0.1659
     33 C         139.0775  138.0442  162.5311 C.3     1  UNL1        0.4186
     34 F         138.9246  137.5565  161.1209 F       1  UNL1       -0.1659
     35 F         140.3749  137.3003  162.6476 F       1  UNL1       -0.1659
     36 F         137.7802  138.7880  162.4146 F       1  UNL1       -0.1659
     37 C         144.4938  143.4941  165.3883 C.3     1  UNL1        0.0005
     38 C         143.8743  143.8356  164.0656 C.3     1  UNL1        0.0082
     39 C         143.6167  145.2689  163.7058 C.3     1  UNL1        0.0005
@<TRIPOS>BOND
     1    37    38    1
     2    38    39    1
     3     1    38    1
     4     1    18    1
     5    18    19    2
     6    18    20   am
     7    20    22    1
     8    22    23    1
     9    23    24   ar
    10    24    25   ar
    11    25    29    1
    12    29    30    1
    13    29    31    1
    14    29    32    1
    15    25    26   ar
    16    26    27   ar
    17    27    33    1
    18    33    34    1
    19    33    35    1
    20    33    36    1
    21    27    28   ar
    22     1     2    1
    23     2     3    1
    24     3     4    1
    25     4     6    1
    26     6     7    1
    27     7     8    1
    28     8     9    1
    29     9    12    1
    30    12    13   ar
    31    13    14   ar
    32    14    15   ar
    33    15    16   ar
    34    16    17   ar
    35     9    10    1
    36    10    11    1
    37     4     5    1
    38     5     1    1
    39    28    23   ar
    40    11     6    1
    41    17    12   ar
    42    20    21    1
@<TRIPOS>MOLECULE
*****
 39 42 0 0 0
SMALL
GASTEIGER

@<TRIPOS>ATOM
      1 C         143.5469  142.8166  163.4388 C.3     1  UNL1        0.0702
      2 C         144.1935  143.6189  162.3487 C.3     1  UNL1        0.0100
      3 C         144.1182  142.8223  161.0800 C.3     1  UNL1        0.0164
      4 C         143.4250  141.5278  161.3858 C.3     1  UNL1        0.0580
      5 C         143.0720  141.5242  162.8437 C.3     1  UNL1        0.0246
      6 N         143.1358  140.4295  160.4060 N.3     1  UNL1       -0.2739
      7 C         143.2681  138.9956  160.8259 C.3     1  UNL1        0.0724
      8 C         142.9788  137.8974  159.8460 C.3     1  UNL1        0.0233
      9 C         142.5572  138.2330  158.4461 C.3     1  UNL1        0.0431
     10 C         142.4249  139.6670  158.0262 C.3     1  UNL1        0.0233
     11 C         142.7142  140.7653  159.0061 C.3     1  UNL1        0.0724
     12 C         142.2680  137.1348  157.4662 C.ar    1  UNL1        0.0620
     13 C         141.1301  137.2733  156.4988 C.ar    1  UNL1        0.0354
     14 C         140.8408  136.1751  155.5189 C.ar    1  UNL1        0.1019
     15 N         141.6894  134.9383  155.5065 N.ar    1  UNL1       -0.2224
     16 C         142.8274  134.7997  156.4740 C.ar    1  UNL1        0.1986
     17 N         143.1167  135.8980  157.4539 N.ar    1  UNL1       -0.2283
     18 C         142.9746  142.2602  164.7087 C.2     1  UNL1        0.2218
     19 O         141.8079  142.9368  165.3652 O.2     1  UNL1       -0.2751
     20 N         143.5690  141.0272  165.3222 N.am    1  UNL1       -0.3004
     21 H         144.3347  140.5831  164.8914 H       1  UNL1        0.1497
     22 C         142.9967  140.4708  166.5922 C.3     1  UNL1        0.1163
     23 C         141.5848  139.9649  166.6201 C.ar    1  UNL1       -0.0027
     24 C         141.0211  139.2483  165.4290 C.ar    1  UNL1        0.0012
     25 C         139.6093  138.7425  165.4570 C.ar    1  UNL1        0.0711
     26 C         138.7611  138.9532  166.6762 C.ar    1  UNL1        0.0077
     27 C         139.3248  139.6697  167.8673 C.ar    1  UNL1        0.0711
     28 C         140.7366  140.1756  167.8393 C.ar    1  UNL1        0.0012
     29 C         139.0455  138.0259  164.2659 C.3     1  UNL1        0.4186
     30 F         138.4818  137.3094  163.0748 F       1  UNL1       -0.1659
     31 F         139.6113  139.0817  163.3630 F       1  UNL1       -0.1659
     32 F         138.4798  136.9701  165.1687 F       1  UNL1       -0.1659
     33 C         138.4766  139.8804  169.0864 C.3     1  UNL1        0.4186
     34 F         137.6285  140.0911  170.3055 F       1  UNL1       -0.1659
     35 F         139.5070  140.8190  169.6410 F       1  UNL1       -0.1659
     36 F         137.4463  138.9419  168.5318 F       1  UNL1       -0.1659
     37 C         144.8317  143.8167  165.4633 C.3     1  UNL1        0.0005
     38 C         143.9021  143.9927  164.2993 C.3     1  UNL1        0.0082
     39 C         143.3278  145.3448  163.9959 C.3     1  UNL1        0.0005
@<TRIPOS>BOND
     1    37    38    1
     2    38    39    1
     3     1    38    1
     4     1    18    1
     5    18    19    2
     6    18    20   am
     7    20    22    1
     8    22    23    1
     9    23    24   ar
    10    24    25   ar
    11    25    29    1
    12    29    30    1
    13    29    31    1
    14    29    32    1
    15    25    26   ar
    16    26    27   ar
    17    27    33    1
    18    33    34    1
    19    33    35    1
    20    33    36    1
    21    27    28   ar
    22     1     2    1
    23     2     3    1
    24     3     4    1
    25     4     6    1
    26     6     7    1
    27     7     8    1
    28     8     9    1
    29     9    12    1
    30    12    13   ar
    31    13    14   ar
    32    14    15   ar
    33    15    16   ar
    34    16    17   ar
    35     9    10    1
    36    10    11    1
    37     4     5    1
    38     5     1    1
    39    28    23   ar
    40    11     6    1
    41    17    12   ar
    42    20    21    1
@<TRIPOS>MOLECULE
*****
 39 42 0 0 0
SMALL
GASTEIGER

@<TRIPOS>ATOM
      1 C         139.1010  141.0919  160.6107 C.3     1  UNL1        0.0702
      2 C         139.4036  140.2209  159.4276 C.3     1  UNL1        0.0100
      3 C         139.5747  141.1082  158.2305 C.3     1  UNL1        0.0164
      4 C         139.3778  142.5276  158.6735 C.3     1  UNL1        0.0580
      5 C         139.0851  142.5176  160.1447 C.3     1  UNL1        0.0246
      6 N         139.4594  143.7437  157.7991 N.3     1  UNL1       -0.2739
      7 C         140.1888  144.9639  158.2775 C.3     1  UNL1        0.0724
      8 C         140.2704  146.1799  157.4030 C.3     1  UNL1        0.0233
      9 C         139.6226  146.1757  156.0501 C.3     1  UNL1        0.0431
     10 C         138.8932  144.9553  155.5717 C.3     1  UNL1        0.0233
     11 C         138.8116  143.7393  156.4462 C.3     1  UNL1        0.0724
     12 C         139.7042  147.3917  155.1757 C.ar    1  UNL1        0.0620
     13 C         140.4626  147.3362  153.8828 C.ar    1  UNL1        0.0354
     14 C         140.5442  148.5522  153.0083 C.ar    1  UNL1        0.1019
     15 N         139.8674  149.8237  153.4268 N.ar    1  UNL1       -0.2224
     16 C         139.1089  149.8792  154.7198 C.ar    1  UNL1        0.1986
     17 N         139.0273  148.6632  155.5943 N.ar    1  UNL1       -0.2283
     18 C         138.7880  141.6911  161.9497 C.2     1  UNL1        0.2218
     19 O         137.3692  142.0142  162.3137 O.2     1  UNL1       -0.2751
     20 N         139.8940  141.9673  162.9248 N.am    1  UNL1       -0.3004
     21 H         140.8252  141.7553  162.6859 H       1  UNL1        0.1497
     22 C         139.5810  142.5665  164.2638 C.3     1  UNL1        0.1163
     23 C         139.5333  141.6942  165.4832 C.ar    1  UNL1       -0.0027
     24 C         138.8429  140.3638  165.4271 C.ar    1  UNL1        0.0012
     25 C         138.7952  139.4916  166.6465 C.ar    1  UNL1        0.0711
     26 C         139.4381  139.9498  167.9220 C.ar    1  UNL1        0.0077
     27 C         140.1285  141.2802  167.9781 C.ar    1  UNL1        0.0711
     28 C         140.1761  142.1524  166.7587 C.ar    1  UNL1        0.0012
     29 C         138.1048  138.1611  166.5904 C.3     1  UNL1        0.4186
     30 F         137.4144  136.8306  166.5343 F       1  UNL1       -0.1659
     31 F         138.9464  137.7741  165.4107 F       1  UNL1       -0.1659
     32 F         137.2632  138.5481  167.7702 F       1  UNL1       -0.1659
     33 C         140.7713  141.7384  169.2535 C.3     1  UNL1        0.4186
     34 F         141.4141  142.1966  170.5290 F       1  UNL1       -0.1659
     35 F         140.4614  143.1624  168.8982 F       1  UNL1       -0.1659
     36 F         141.0813  140.3145  169.6089 F       1  UNL1       -0.1659
     37 C         137.7326  139.1264  161.6176 C.3     1  UNL1        0.0005
     38 C         139.0514  139.7916  161.3567 C.3     1  UNL1        0.0082
     39 C         140.3208  139.1564  161.8418 C.3     1  UNL1        0.0005
@<TRIPOS>BOND
     1    37    38    1
     2    38    39    1
     3     1    38    1
     4     1    18    1
     5    18    19    2
     6    18    20   am
     7    20    22    1
     8    22    23    1
     9    23    24   ar
    10    24    25   ar
    11    25    29    1
    12    29    30    1
    13    29    31    1
    14    29    32    1
    15    25    26   ar
    16    26    27   ar
    17    27    33    1
    18    33    34    1
    19    33    35    1
    20    33    36    1
    21    27    28   ar
    22     1     2    1
    23     2     3    1
    24     3     4    1
    25     4     6    1
    26     6     7    1
    27     7     8    1
    28     8     9    1
    29     9    12    1
    30    12    13   ar
    31    13    14   ar
    32    14    15   ar
    33    15    16   ar
    34    16    17   ar
    35     9    10    1
    36    10    11    1
    37     4     5    1
    38     5     1    1
    39    28    23   ar
    40    11     6    1
    41    17    12   ar
    42    20    21    1
@<TRIPOS>MOLECULE
*****
 39 42 0 0 0
SMALL
GASTEIGER

@<TRIPOS>ATOM
      1 C         143.0675  139.2898  162.8751 C.3     1  UNL1        0.0702
      2 C         144.3371  138.8312  162.2211 C.3     1  UNL1        0.0100
      3 C         144.0133  138.4269  160.8133 C.3     1  UNL1        0.0164
      4 C         142.5438  138.6357  160.5974 C.3     1  UNL1        0.0580
      5 C         141.9592  139.1690  161.8717 C.3     1  UNL1        0.0246
      6 N         141.7909  138.3596  159.3297 N.3     1  UNL1       -0.2739
      7 C         140.3646  138.8032  159.1926 C.3     1  UNL1        0.0724
      8 C         139.6118  138.5271  157.9250 C.3     1  UNL1        0.0233
      9 C         140.2852  137.8074  156.7943 C.3     1  UNL1        0.0431
     10 C         141.7116  137.3637  156.9314 C.3     1  UNL1        0.0233
     11 C         142.4645  137.6398  158.1990 C.3     1  UNL1        0.0724
     12 C         139.5324  137.5313  155.5266 C.ar    1  UNL1        0.0620
     13 C         140.2246  136.8692  154.3723 C.ar    1  UNL1        0.0354
     14 C         139.4718  136.5931  153.1046 C.ar    1  UNL1        0.1019
     15 N         138.0267  136.9791  152.9913 N.ar    1  UNL1       -0.2224
     16 C         137.3345  137.6412  154.1457 C.ar    1  UNL1        0.1986
     17 N         138.0873  137.9173  155.4134 N.ar    1  UNL1       -0.2283
     18 C         141.9822  139.7959  163.7785 C.2     1  UNL1        0.2218
     19 O         140.9894  138.8381  164.3676 O.2     1  UNL1       -0.2751
     20 N         141.8897  141.2597  164.0928 N.am    1  UNL1       -0.3004
     21 H         142.5413  141.8883  163.7061 H       1  UNL1        0.1497
     22 C         140.8044  141.7657  164.9961 C.3     1  UNL1        0.1163
     23 C         140.9285  141.6024  166.4821 C.ar    1  UNL1       -0.0027
     24 C         142.1861  142.0267  167.1808 C.ar    1  UNL1        0.0012
     25 C         142.3101  141.8633  168.6667 C.ar    1  UNL1        0.0711
     26 C         141.1765  141.2757  169.4538 C.ar    1  UNL1        0.0077
     27 C         139.9189  140.8514  168.7551 C.ar    1  UNL1        0.0711
     28 C         139.7949  141.0148  167.2692 C.ar    1  UNL1        0.0012
     29 C         143.5678  142.2876  169.3655 C.3     1  UNL1        0.4186
     30 F         144.8254  142.7118  170.0643 F       1  UNL1       -0.1659
     31 F         143.0247  141.7627  170.6615 F       1  UNL1       -0.1659
     32 F         144.1109  142.8124  168.0695 F       1  UNL1       -0.1659
     33 C         138.7852  140.2638  169.5422 C.3     1  UNL1        0.4186
     34 F         137.6516  139.6762  170.3294 F       1  UNL1       -0.1659
     35 F         138.3334  139.5085  168.3276 F       1  UNL1       -0.1659
     36 F         139.2371  141.0192  170.7568 F       1  UNL1       -0.1659
     37 C         143.7039  138.7555  165.3367 C.3     1  UNL1        0.0005
     38 C         143.9489  139.5165  164.0675 C.3     1  UNL1        0.0082
     39 C         145.0753  140.5041  163.9907 C.3     1  UNL1        0.0005
@<TRIPOS>BOND
     1    37    38    1
     2    38    39    1
     3     1    38    1
     4     1    18    1
     5    18    19    2
     6    18    20   am
     7    20    22    1
     8    22    23    1
     9    23    24   ar
    10    24    25   ar
    11    25    29    1
    12    29    30    1
    13    29    31    1
    14    29    32    1
    15    25    26   ar
    16    26    27   ar
    17    27    33    1
    18    33    34    1
    19    33    35    1
    20    33    36    1
    21    27    28   ar
    22     1     2    1
    23     2     3    1
    24     3     4    1
    25     4     6    1
    26     6     7    1
    27     7     8    1
    28     8     9    1
    29     9    12    1
    30    12    13   ar
    31    13    14   ar
    32    14    15   ar
    33    15    16   ar
    34    16    17   ar
    35     9    10    1
    36    10    11    1
    37     4     5    1
    38     5     1    1
    39    28    23   ar
    40    11     6    1
    41    17    12   ar
    42    20    21    1
@<TRIPOS>MOLECULE
*****
 39 42 0 0 0
SMALL
GASTEIGER

@<TRIPOS>ATOM
      1 C         139.9213  143.7714  162.7069 C.3     1  UNL1        0.0702
      2 C         139.7807  145.1098  162.0443 C.3     1  UNL1        0.0100
      3 C         140.7072  145.1428  160.8651 C.3     1  UNL1        0.0164
      4 C         141.4204  143.8249  160.7988 C.3     1  UNL1        0.0580
      5 C         140.9347  142.9773  161.9371 C.3     1  UNL1        0.0246
      6 N         142.4402  143.4248  159.7742 N.3     1  UNL1       -0.2739
      7 C         143.7319  142.7971  160.2070 C.3     1  UNL1        0.0724
      8 C         144.7518  142.3970  159.1824 C.3     1  UNL1        0.0233
      9 C         144.4799  142.6246  157.7249 C.3     1  UNL1        0.0431
     10 C         143.1881  143.2524  157.2921 C.3     1  UNL1        0.0233
     11 C         142.1682  143.6525  158.3167 C.3     1  UNL1        0.0724
     12 C         145.4997  142.2245  156.7003 C.ar    1  UNL1        0.0620
     13 C         145.0811  141.4407  155.4918 C.ar    1  UNL1        0.0354
     14 C         146.1010  141.0406  154.4672 C.ar    1  UNL1        0.1019
     15 N         147.5393  141.4243  154.6510 N.ar    1  UNL1       -0.2224
     16 C         147.9579  142.2082  155.8596 C.ar    1  UNL1        0.1986
     17 N         146.9381  142.6083  156.8842 N.ar    1  UNL1       -0.2283
     18 C         139.8468  142.5455  163.5679 C.2     1  UNL1        0.2218
     19 O         138.5513  141.8016  163.7031 O.2     1  UNL1       -0.2751
     20 N         141.0678  142.0635  164.2939 N.am    1  UNL1       -0.3004
     21 H         141.9181  142.5518  164.2052 H       1  UNL1        0.1497
     22 C         140.9933  140.8376  165.1550 C.3     1  UNL1        0.1163
     23 C         141.1870  140.9499  166.6382 C.ar    1  UNL1       -0.0027
     24 C         140.7976  142.2104  167.3521 C.ar    1  UNL1        0.0012
     25 C         140.9913  142.3227  168.8352 C.ar    1  UNL1        0.0711
     26 C         141.5743  141.1745  169.6046 C.ar    1  UNL1        0.0077
     27 C         141.9637  139.9141  168.8907 C.ar    1  UNL1        0.0711
     28 C         141.7700  139.8018  167.4075 C.ar    1  UNL1        0.0012
     29 C         140.6020  143.5832  169.5492 C.3     1  UNL1        0.4186
     30 F         140.2126  144.8436  170.2630 F       1  UNL1       -0.1659
     31 F         139.8670  144.0483  168.3271 F       1  UNL1       -0.1659
     32 F         141.3369  143.1181  170.7712 F       1  UNL1       -0.1659
     33 C         142.5467  138.7660  169.6600 C.3     1  UNL1        0.4186
     34 F         143.1298  137.6178  170.4293 F       1  UNL1       -0.1659
     35 F         143.1874  138.2507  168.4054 F       1  UNL1       -0.1659
     36 F         141.9060  139.2812  170.9146 F       1  UNL1       -0.1659
     37 C         137.4591  144.4167  163.2275 C.3     1  UNL1        0.0005
     38 C         138.8924  144.3092  163.6566 C.3     1  UNL1        0.0082
     39 C         139.2967  144.7396  165.0355 C.3     1  UNL1        0.0005
@<TRIPOS>BOND
     1    37    38    1
     2    38    39    1
     3     1    38    1
     4     1    18    1
     5    18    19    2
     6    18    20   am
     7    20    22    1
     8    22    23    1
     9    23    24   ar
    10    24    25   ar
    11    25    29    1
    12    29    30    1
    13    29    31    1
    14    29    32    1
    15    25    26   ar
    16    26    27   ar
    17    27    33    1
    18    33    34    1
    19    33    35    1
    20    33    36    1
    21    27    28   ar
    22     1     2    1
    23     2     3    1
    24     3     4    1
    25     4     6    1
    26     6     7    1
    27     7     8    1
    28     8     9    1
    29     9    12    1
    30    12    13   ar
    31    13    14   ar
    32    14    15   ar
    33    15    16   ar
    34    16    17   ar
    35     9    10    1
    36    10    11    1
    37     4     5    1
    38     5     1    1
    39    28    23   ar
    40    11     6    1
    41    17    12   ar
    42    20    21    1
@<TRIPOS>MOLECULE
*****
 39 42 0 0 0
SMALL
GASTEIGER

@<TRIPOS>ATOM
      1 C         140.4037  139.4302  158.5794 C.3     1  UNL1        0.0702
      2 C         140.6359  140.0726  157.2439 C.3     1  UNL1        0.0100
      3 C         141.1967  139.0322  156.3204 C.3     1  UNL1        0.0164
      4 C         141.3111  137.7468  157.0850 C.3     1  UNL1        0.0580
      5 C         140.8210  137.9928  158.4811 C.3     1  UNL1        0.0246
      6 N         141.8253  136.4441  156.5477 N.3     1  UNL1       -0.2739
      7 C         143.0482  135.8158  157.1475 C.3     1  UNL1        0.0724
      8 C         143.5624  134.5131  156.6103 C.3     1  UNL1        0.0233
      9 C         142.8537  133.8387  155.4732 C.3     1  UNL1        0.0431
     10 C         141.6307  134.4670  154.8734 C.3     1  UNL1        0.0233
     11 C         141.1165  135.7697  155.4107 C.3     1  UNL1        0.0724
     12 C         143.3679  132.5360  154.9360 C.ar    1  UNL1        0.0620
     13 C         144.2836  131.6899  155.7701 C.ar    1  UNL1        0.0354
     14 C         144.7978  130.3873  155.2328 C.ar    1  UNL1        0.1019
     15 N         144.3963  129.9307  153.8616 N.ar    1  UNL1       -0.2224
     16 C         143.4806  130.7768  153.0275 C.ar    1  UNL1        0.1986
     17 N         142.9664  132.0795  153.5647 N.ar    1  UNL1       -0.2283
     18 C         140.0697  139.0727  159.9973 C.2     1  UNL1        0.2218
     19 O         141.1398  139.0942  161.0482 O.2     1  UNL1       -0.2751
     20 N         138.6655  138.6936  160.3644 N.am    1  UNL1       -0.3004
     21 H         137.9632  138.6794  159.6746 H       1  UNL1        0.1497
     22 C         138.3315  138.3361  161.7823 C.3     1  UNL1        0.1163
     23 C         138.3041  139.4015  162.8379 C.ar    1  UNL1       -0.0027
     24 C         138.0209  140.8250  162.4595 C.ar    1  UNL1        0.0012
     25 C         137.9935  141.8904  163.5151 C.ar    1  UNL1        0.0711
     26 C         138.2493  141.5321  164.9491 C.ar    1  UNL1        0.0077
     27 C         138.5325  140.1086  165.3274 C.ar    1  UNL1        0.0711
     28 C         138.5599  139.0432  164.2719 C.ar    1  UNL1        0.0012
     29 C         137.7103  143.3140  163.1368 C.3     1  UNL1        0.4186
     30 F         137.4271  144.7376  162.7584 F       1  UNL1       -0.1659
     31 F         137.8381  142.9539  161.6863 F       1  UNL1       -0.1659
     32 F         137.5825  143.6741  164.5872 F       1  UNL1       -0.1659
     33 C         138.7884  139.7503  166.7614 C.3     1  UNL1        0.4186
     34 F         139.0442  139.3921  168.1954 F       1  UNL1       -0.1659
     35 F         140.0911  140.4923  166.7143 F       1  UNL1       -0.1659
     36 F         137.4856  139.0083  166.8085 F       1  UNL1       -0.1659
     37 C         138.5164  141.2146  158.6400 C.3     1  UNL1        0.0005
     38 C         139.9166  140.7929  158.9741 C.3     1  UNL1        0.0082
     39 C         140.8296  141.7338  159.7028 C.3     1  UNL1        0.0005
@<TRIPOS>BOND
     1    37    38    1
     2    38    39    1
     3     1    38    1
     4     1    18    1
     5    18    19    2
     6    18    20   am
     7    20    22    1
     8    22    23    1
     9    23    24   ar
    10    24    25   ar
    11    25    29    1
    12    29    30    1
    13    29    31    1
    14    29    32    1
    15    25    26   ar
    16    26    27   ar
    17    27    33    1
    18    33    34    1
    19    33    35    1
    20    33    36    1
    21    27    28   ar
    22     1     2    1
    23     2     3    1
    24     3     4    1
    25     4     6    1
    26     6     7    1
    27     7     8    1
    28     8     9    1
    29     9    12    1
    30    12    13   ar
    31    13    14   ar
    32    14    15   ar
    33    15    16   ar
    34    16    17   ar
    35     9    10    1
    36    10    11    1
    37     4     5    1
    38     5     1    1
    39    28    23   ar
    40    11     6    1
    41    17    12   ar
    42    20    21    1
@<TRIPOS>MOLECULE
*****
 39 42 0 0 0
SMALL
GASTEIGER

@<TRIPOS>ATOM
      1 C         140.0026  144.7424  158.1282 C.3     1  UNL1        0.0702
      2 C         139.4548  144.1163  156.8800 C.3     1  UNL1        0.0100
      3 C         139.1506  145.2152  155.9054 C.3     1  UNL1        0.0164
      4 C         139.5102  146.5203  156.5511 C.3     1  UNL1        0.0580
      5 C         140.0368  146.2281  157.9250 C.3     1  UNL1        0.0246
      6 N         139.3683  147.8791  155.9319 N.3     1  UNL1       -0.2739
      7 C         139.9940  148.1650  154.5990 C.3     1  UNL1        0.0724
      8 C         139.8520  149.5238  153.9797 C.3     1  UNL1        0.0233
      9 C         139.0843  150.5968  154.6934 C.3     1  UNL1        0.0431
     10 C         138.4586  150.3109  156.0264 C.3     1  UNL1        0.0233
     11 C         138.6006  148.9521  156.6457 C.3     1  UNL1        0.0724
     12 C         138.9424  151.9556  154.0742 C.ar    1  UNL1        0.0620
     13 C         138.8130  152.0918  152.5860 C.ar    1  UNL1        0.0354
     14 C         138.6710  153.4506  151.9668 C.ar    1  UNL1        0.1019
     15 N         138.6585  154.6733  152.8357 N.ar    1  UNL1       -0.2224
     16 C         138.7879  154.5371  154.3240 C.ar    1  UNL1        0.1986
     17 N         138.9299  153.1782  154.9432 N.ar    1  UNL1       -0.2283
     18 C         140.5678  145.0722  159.4778 C.2     1  UNL1        0.2218
     19 O         142.0158  144.8101  159.7690 O.2     1  UNL1       -0.2751
     20 N         139.6852  145.6643  160.5364 N.am    1  UNL1       -0.3004
     21 H         138.7348  145.8363  160.3453 H       1  UNL1        0.1497
     22 C         140.2504  145.9941  161.8860 C.3     1  UNL1        0.1163
     23 C         140.5942  144.8929  162.8448 C.ar    1  UNL1       -0.0027
     24 C         139.5546  143.8829  163.2309 C.ar    1  UNL1        0.0012
     25 C         139.8984  142.7817  164.1896 C.ar    1  UNL1        0.0711
     26 C         141.2818  142.6905  164.7622 C.ar    1  UNL1        0.0077
     27 C         142.3214  143.7005  164.3761 C.ar    1  UNL1        0.0711
     28 C         141.9776  144.8017  163.4174 C.ar    1  UNL1        0.0012
     29 C         138.8588  141.7716  164.5757 C.3     1  UNL1        0.4186
     30 F         137.8193  140.7615  164.9618 F       1  UNL1       -0.1659
     31 F         139.9224  140.7198  164.6877 F       1  UNL1       -0.1659
     32 F         137.7953  142.8234  164.4637 F       1  UNL1       -0.1659
     33 C         143.7048  143.6093  164.9487 C.3     1  UNL1        0.4186
     34 F         145.0882  143.5181  165.5213 F       1  UNL1       -0.1659
     35 F         144.0952  144.8511  164.2034 F       1  UNL1       -0.1659
     36 F         143.3145  142.3675  165.6940 F       1  UNL1       -0.1659
     37 C         141.2651  142.4747  158.2437 C.3     1  UNL1        0.0005
     38 C         140.0865  143.3256  158.6136 C.3     1  UNL1        0.0082
     39 C         138.9918  142.7597  159.4688 C.3     1  UNL1        0.0005
@<TRIPOS>BOND
     1    37    38    1
     2    38    39    1
     3     1    38    1
     4     1    18    1
     5    18    19    2
     6    18    20   am
     7    20    22    1
     8    22    23    1
     9    23    24   ar
    10    24    25   ar
    11    25    29    1
    12    29    30    1
    13    29    31    1
    14    29    32    1
    15    25    26   ar
    16    26    27   ar
    17    27    33    1
    18    33    34    1
    19    33    35    1
    20    33    36    1
    21    27    28   ar
    22     1     2    1
    23     2     3    1
    24     3     4    1
    25     4     6    1
    26     6     7    1
    27     7     8    1
    28     8     9    1
    29     9    12    1
    30    12    13   ar
    31    13    14   ar
    32    14    15   ar
    33    15    16   ar
    34    16    17   ar
    35     9    10    1
    36    10    11    1
    37     4     5    1
    38     5     1    1
    39    28    23   ar
    40    11     6    1
    41    17    12   ar
    42    20    21    1
@<TRIPOS>MOLECULE
*****
 39 42 0 0 0
SMALL
GASTEIGER

@<TRIPOS>ATOM
      1 C         138.9278  141.3975  160.0425 C.3     1  UNL1        0.0702
      2 C         138.7318  140.5419  158.8262 C.3     1  UNL1        0.0100
      3 C         138.8582  141.4199  157.6166 C.3     1  UNL1        0.0164
      4 C         139.1323  142.8182  158.0853 C.3     1  UNL1        0.0580
      5 C         139.1754  142.8043  159.5847 C.3     1  UNL1        0.0246
      6 N         139.3289  144.0193  157.2087 N.3     1  UNL1       -0.2739
      7 C         140.1434  145.1799  157.6982 C.3     1  UNL1        0.0724
      8 C         140.3400  146.3811  156.8215 C.3     1  UNL1        0.0233
      9 C         139.7221  146.4217  155.4553 C.3     1  UNL1        0.0431
     10 C         138.9075  145.2610  154.9658 C.3     1  UNL1        0.0233
     11 C         138.7109  144.0599  155.8425 C.3     1  UNL1        0.0724
     12 C         139.9186  147.6229  154.5787 C.ar    1  UNL1        0.0620
     13 C         139.3082  148.9385  154.9612 C.ar    1  UNL1        0.0354
     14 C         139.5047  150.1397  154.0846 C.ar    1  UNL1        0.1019
     15 N         140.3118  150.0252  152.8254 N.ar    1  UNL1       -0.2224
     16 C         140.9223  148.7095  152.4428 C.ar    1  UNL1        0.1986
     17 N         140.7257  147.5083  153.3195 N.ar    1  UNL1       -0.2283
     18 C         139.0787  141.9847  161.4145 C.2     1  UNL1        0.2218
     19 O         140.4432  142.3142  161.9434 O.2     1  UNL1       -0.2751
     20 N         137.8651  142.2425  162.2577 N.am    1  UNL1       -0.3004
     21 H         136.9696  142.0262  161.9105 H       1  UNL1        0.1497
     22 C         138.0160  142.8297  163.6297 C.3     1  UNL1        0.1163
     23 C         138.5821  141.9988  164.7430 C.ar    1  UNL1       -0.0027
     24 C         139.6213  142.5774  165.6569 C.ar    1  UNL1        0.0012
     25 C         140.1872  141.7466  166.7701 C.ar    1  UNL1        0.0711
     26 C         139.7140  140.3372  166.9695 C.ar    1  UNL1        0.0077
     27 C         138.6748  139.7586  166.0556 C.ar    1  UNL1        0.0711
     28 C         138.1088  140.5895  164.9423 C.ar    1  UNL1        0.0012
     29 C         141.2265  142.3251  167.6841 C.3     1  UNL1        0.4186
     30 F         142.2658  142.9036  168.5980 F       1  UNL1       -0.1659
     31 F         142.3081  141.7762  166.8016 F       1  UNL1       -0.1659
     32 F         140.1449  142.8740  168.5666 F       1  UNL1       -0.1659
     33 C         138.2015  138.3493  166.2549 C.3     1  UNL1        0.4186
     34 F         137.7283  136.9399  166.4543 F       1  UNL1       -0.1659
     35 F         137.5985  138.7381  167.5722 F       1  UNL1       -0.1659
     36 F         138.8046  137.9605  164.9377 F       1  UNL1       -0.1659
     37 C         137.3429  139.5036  160.8491 C.3     1  UNL1        0.0005
     38 C         138.7118  140.1135  160.7873 C.3     1  UNL1        0.0082
     39 C         139.8648  139.4394  161.4701 C.3     1  UNL1        0.0005
@<TRIPOS>BOND
     1    37    38    1
     2    38    39    1
     3     1    38    1
     4     1    18    1
     5    18    19    2
     6    18    20   am
     7    20    22    1
     8    22    23    1
     9    23    24   ar
    10    24    25   ar
    11    25    29    1
    12    29    30    1
    13    29    31    1
    14    29    32    1
    15    25    26   ar
    16    26    27   ar
    17    27    33    1
    18    33    34    1
    19    33    35    1
    20    33    36    1
    21    27    28   ar
    22     1     2    1
    23     2     3    1
    24     3     4    1
    25     4     6    1
    26     6     7    1
    27     7     8    1
    28     8     9    1
    29     9    12    1
    30    12    13   ar
    31    13    14   ar
    32    14    15   ar
    33    15    16   ar
    34    16    17   ar
    35     9    10    1
    36    10    11    1
    37     4     5    1
    38     5     1    1
    39    28    23   ar
    40    11     6    1
    41    17    12   ar
    42    20    21    1
@<TRIPOS>MOLECULE
*****
 39 42 0 0 0
SMALL
GASTEIGER

@<TRIPOS>ATOM
      1 C         140.4464  139.4086  158.6369 C.3     1  UNL1        0.0702
      2 C         140.6836  140.0612  157.3073 C.3     1  UNL1        0.0100
      3 C         141.2353  139.0245  156.3741 C.3     1  UNL1        0.0164
      4 C         141.3390  137.7313  157.1269 C.3     1  UNL1        0.0580
      5 C         140.8514  137.9687  158.5254 C.3     1  UNL1        0.0246
      6 N         141.8419  136.4292  156.5776 N.3     1  UNL1       -0.2739
      7 C         141.1867  135.8199  155.3737 C.3     1  UNL1        0.0724
      8 C         141.6896  134.5178  154.8245 C.3     1  UNL1        0.0233
      9 C         142.8479  133.8251  155.4791 C.3     1  UNL1        0.0431
     10 C         143.5032  134.4345  156.6830 C.3     1  UNL1        0.0233
     11 C         143.0002  135.7365  157.2323 C.3     1  UNL1        0.0724
     12 C         143.3508  132.5230  154.9298 C.ar    1  UNL1        0.0620
     13 C         142.9149  132.0643  153.5698 C.ar    1  UNL1        0.0354
     14 C         143.4178  130.7623  153.0206 C.ar    1  UNL1        0.1019
     15 N         144.3567  129.9189  153.8312 N.ar    1  UNL1       -0.2224
     16 C         144.7927  130.3777  155.1913 C.ar    1  UNL1        0.1986
     17 N         144.2898  131.6797  155.7406 N.ar    1  UNL1       -0.2283
     18 C         140.1097  139.0410  160.0517 C.2     1  UNL1        0.2218
     19 O         141.1896  138.9946  161.0918 O.2     1  UNL1       -0.2751
     20 N         138.6932  138.7198  160.4264 N.am    1  UNL1       -0.3004
     21 H         137.9844  138.7503  159.7437 H       1  UNL1        0.1497
     22 C         138.3565  138.3523  161.8411 C.3     1  UNL1        0.1163
     23 C         138.3219  139.4110  162.9032 C.ar    1  UNL1       -0.0027
     24 C         138.5991  139.0492  164.3322 C.ar    1  UNL1        0.0012
     25 C         138.5644  140.1079  165.3942 C.ar    1  UNL1        0.0711
     26 C         138.2526  141.5285  165.0271 C.ar    1  UNL1        0.0077
     27 C         137.9754  141.8903  163.5981 C.ar    1  UNL1        0.0711
     28 C         138.0101  140.8316  162.5361 C.ar    1  UNL1        0.0012
     29 C         138.8416  139.7461  166.8233 C.3     1  UNL1        0.4186
     30 F         139.1187  139.3842  168.2524 F       1  UNL1       -0.1659
     31 F         138.1300  138.4398  166.6305 F       1  UNL1       -0.1659
     32 F         139.5532  141.0523  167.0161 F       1  UNL1       -0.1659
     33 C         137.6636  143.3109  163.2310 C.3     1  UNL1        0.4186
     34 F         137.3518  144.7315  162.8640 F       1  UNL1       -0.1659
     35 F         137.5541  143.6626  164.6851 F       1  UNL1       -0.1659
     36 F         137.7731  142.9592  161.7769 F       1  UNL1       -0.1659
     37 C         140.8635  141.6670  159.8516 C.3     1  UNL1        0.0005
     38 C         139.9710  140.7717  159.0442 C.3     1  UNL1        0.0082
     39 C         138.6031  141.2395  158.6442 C.3     1  UNL1        0.0005
@<TRIPOS>BOND
     1    37    38    1
     2    38    39    1
     3     1    38    1
     4     1    18    1
     5    18    19    2
     6    18    20   am
     7    20    22    1
     8    22    23    1
     9    23    24   ar
    10    24    25   ar
    11    25    29    1
    12    29    30    1
    13    29    31    1
    14    29    32    1
    15    25    26   ar
    16    26    27   ar
    17    27    33    1
    18    33    34    1
    19    33    35    1
    20    33    36    1
    21    27    28   ar
    22     1     2    1
    23     2     3    1
    24     3     4    1
    25     4     6    1
    26     6     7    1
    27     7     8    1
    28     8     9    1
    29     9    12    1
    30    12    13   ar
    31    13    14   ar
    32    14    15   ar
    33    15    16   ar
    34    16    17   ar
    35     9    10    1
    36    10    11    1
    37     4     5    1
    38     5     1    1
    39    28    23   ar
    40    11     6    1
    41    17    12   ar
    42    20    21    1
