@<TRIPOS>MOLECULE
*****
 33 38 0 0 0
SMALL
GASTEIGER

@<TRIPOS>ATOM
      1 C         143.7197  138.9184  164.6265 C.3     1  UNL1        0.0238
      2 C         142.7362  140.0300  164.4095 C.3     1  UNL1        0.0973
      3 C         142.8340  140.0573  165.9061 C.3     1  UNL1        0.0493
      4 C         142.0330  141.0527  166.6920 C.2     1  UNL1       -0.0045
      5 C         141.1342  142.0207  165.9813 C.2     1  UNL1        0.0689
      6 N         140.4703  142.8813  167.0150 N.2     1  UNL1       -0.2526
      7 C         140.9588  142.4453  168.3645 C.2     1  UNL1        0.0627
      8 C         140.6490  142.9313  169.7493 C.3     1  UNL1        0.0717
      9 C         141.3049  142.2871  170.9345 C.2     1  UNL1       -0.0198
     10 C         142.2708  141.1569  170.7348 C.2     1  UNL1       -0.0042
     11 C         142.5806  140.6709  169.3500 C.2     1  UNL1        0.0006
     12 C         141.9246  141.3150  168.1649 C.2     1  UNL1        0.0111
     13 C         141.0364  141.9933  164.4847 C.3     1  UNL1        0.0948
     14 N         141.8374  140.9980  163.6988 N.3     1  UNL1       -0.2901
     15 H         142.4265  141.5325  163.0603 H       1  UNL1        0.1239
     16 C         142.9800  139.6166  162.9883 C.ar    1  UNL1        0.1301
     17 N         141.9305  139.2164  161.9941 N.ar    1  UNL1       -0.2298
     18 C         142.6180  138.8833  160.7032 C.ar    1  UNL1        0.0996
     19 C         144.0923  139.0776  160.8995 C.ar    1  UNL1        0.0927
     20 N         144.3160  139.5308  162.3118 N.ar    1  UNL1       -0.3386
     21 H         145.1869  139.7359  162.7226 H       1  UNL1        0.1672
     22 C         141.9486  138.4346  159.4381 C.ar    1  UNL1        0.0192
     23 C         140.4907  138.7134  159.2214 C.ar    1  UNL1        0.0015
     24 C         139.8213  138.2648  157.9563 C.ar    1  UNL1        0.0000
     25 C         140.6096  137.5373  156.9078 C.ar    1  UNL1        0.0000
     26 C         142.0675  137.2585  157.1245 C.ar    1  UNL1        0.0000
     27 C         142.7369  137.7072  158.3896 C.ar    1  UNL1        0.0015
     28 C         140.1376  142.9613  163.7740 C.3     1  UNL1        0.0252
     29 C         138.7323  142.5659  163.4296 C.3     1  UNL1        0.0339
     30 C         137.8335  143.5340  162.7189 C.3     1  UNL1        0.1422
     31 O         138.3401  144.8975  162.3526 O.3     1  UNL1       -0.3538
     32 C         139.7454  145.2930  162.6970 C.3     1  UNL1        0.1422
     33 C         140.6441  144.3250  163.4077 C.3     1  UNL1        0.0339
@<TRIPOS>BOND
     1     1     2    1
     2     2    16    1
     3    16    17   ar
     4    17    18   ar
     5    18    22    1
     6    22    23   ar
     7    23    24   ar
     8    24    25   ar
     9    25    26   ar
    10    26    27   ar
    11    18    19   ar
    12    19    20   ar
    13     2     3    1
    14     3     4    1
    15     4     5    2
    16     5     6    1
    17     6     7    2
    18     7     8    1
    19     8     9    1
    20     9    10    2
    21    10    11    1
    22    11    12    2
    23     5    13    1
    24    13    28    1
    25    28    29    1
    26    29    30    1
    27    30    31    1
    28    31    32    1
    29    32    33    1
    30    13    14    1
    31    14     2    1
    32    20    16   ar
    33    12     4    1
    34    33    28    1
    35    27    22   ar
    36    12     7    1
    37    20    21    1
    38    14    15    1
@<TRIPOS>MOLECULE
*****
 33 38 0 0 0
SMALL
GASTEIGER

@<TRIPOS>ATOM
      1 C         138.6084  138.0072  162.4121 C.3     1  UNL1        0.0238
      2 C         139.9272  138.7218  162.4108 C.3     1  UNL1        0.0973
      3 C         139.8401  138.3333  160.9646 C.3     1  UNL1        0.0493
      4 C         140.9429  138.7081  160.0195 C.2     1  UNL1       -0.0045
      5 C         142.1329  139.4715  160.5206 C.2     1  UNL1        0.0689
      6 N         143.0583  139.6999  159.3624 N.2     1  UNL1       -0.2526
      7 C         142.4403  139.0776  158.1455 C.2     1  UNL1        0.0627
      8 C         142.8991  138.9900  156.7201 C.3     1  UNL1        0.0717
      9 C         142.0505  138.2894  155.7009 C.2     1  UNL1       -0.0198
     10 C         140.7431  137.6764  156.1070 C.2     1  UNL1       -0.0042
     11 C         140.2843  137.7641  157.5323 C.2     1  UNL1        0.0006
     12 C         141.1329  138.4647  158.5516 C.2     1  UNL1        0.0111
     13 C         142.2201  139.8600  161.9668 C.3     1  UNL1        0.0948
     14 N         141.1172  139.4852  162.9119 N.3     1  UNL1       -0.2901
     15 H         140.7628  140.3546  163.3105 H       1  UNL1        0.1239
     16 C         139.5563  138.8622  163.8574 C.ar    1  UNL1        0.1301
     17 N         140.0499  139.9238  164.7951 N.ar    1  UNL1       -0.2298
     18 C         139.4254  139.6833  166.1376 C.ar    1  UNL1        0.0996
     19 C         138.5458  138.4730  166.0296 C.ar    1  UNL1        0.0927
     20 N         138.6268  137.9656  164.6203 N.ar    1  UNL1       -0.3386
     21 H         138.1530  137.1816  164.2595 H       1  UNL1        0.1672
     22 C         139.6423  140.5082  167.3714 C.ar    1  UNL1        0.0192
     23 C         139.1442  140.0178  168.6986 C.ar    1  UNL1        0.0015
     24 C         139.3612  140.8428  169.9325 C.ar    1  UNL1        0.0000
     25 C         140.0761  142.1581  169.8392 C.ar    1  UNL1        0.0000
     26 C         140.5742  142.6485  168.5120 C.ar    1  UNL1        0.0000
     27 C         140.3573  141.8236  167.2782 C.ar    1  UNL1        0.0015
     28 C         143.4101  140.6234  162.4679 C.3     1  UNL1        0.0252
     29 C         144.3765  139.9712  163.4116 C.3     1  UNL1        0.0339
     30 C         145.5665  140.7346  163.9127 C.3     1  UNL1        0.1422
     31 O         145.7901  142.1503  163.4701 O.3     1  UNL1       -0.3538
     32 C         144.8236  142.8026  162.5264 C.3     1  UNL1        0.1422
     33 C         143.6337  142.0392  162.0254 C.3     1  UNL1        0.0339
@<TRIPOS>BOND
     1     1     2    1
     2     2    16    1
     3    16    17   ar
     4    17    18   ar
     5    18    22    1
     6    22    23   ar
     7    23    24   ar
     8    24    25   ar
     9    25    26   ar
    10    26    27   ar
    11    18    19   ar
    12    19    20   ar
    13     2     3    1
    14     3     4    1
    15     4     5    2
    16     5     6    1
    17     6     7    2
    18     7     8    1
    19     8     9    1
    20     9    10    2
    21    10    11    1
    22    11    12    2
    23     5    13    1
    24    13    28    1
    25    28    29    1
    26    29    30    1
    27    30    31    1
    28    31    32    1
    29    32    33    1
    30    13    14    1
    31    14     2    1
    32    20    16   ar
    33    12     4    1
    34    33    28    1
    35    27    22   ar
    36    12     7    1
    37    20    21    1
    38    14    15    1
@<TRIPOS>MOLECULE
*****
 33 38 0 0 0
SMALL
GASTEIGER

@<TRIPOS>ATOM
      1 C         143.9787  139.2465  164.7178 C.3     1  UNL1        0.0238
      2 C         142.9462  140.3094  164.4851 C.3     1  UNL1        0.0973
      3 C         142.9609  140.2845  165.9848 C.3     1  UNL1        0.0493
      4 C         142.0625  141.2029  166.7591 C.2     1  UNL1       -0.0045
      5 C         141.1494  142.1461  166.0335 C.2     1  UNL1        0.0689
      6 N         140.3820  142.9282  167.0580 N.2     1  UNL1       -0.2526
      7 C         140.8208  142.4683  168.4166 C.2     1  UNL1        0.0627
      8 C         140.4089  142.8827  169.7981 C.3     1  UNL1        0.0717
      9 C         141.0356  142.2308  170.9948 C.2     1  UNL1       -0.0198
     10 C         142.0742  141.1644  170.8101 C.2     1  UNL1       -0.0042
     11 C         142.4861  140.7500  169.4286 C.2     1  UNL1        0.0006
     12 C         141.8595  141.4019  168.2319 C.2     1  UNL1        0.0111
     13 C         141.1346  142.1711  164.5338 C.3     1  UNL1        0.0948
     14 N         142.0330  141.2527  163.7596 N.3     1  UNL1       -0.2901
     15 H         142.6242  141.8432  163.1746 H       1  UNL1        0.1239
     16 C         143.2901  139.9651  163.0662 C.ar    1  UNL1        0.1301
     17 N         143.2706  140.9089  161.9005 N.ar    1  UNL1       -0.2298
     18 C         143.6823  140.1438  160.6777 C.ar    1  UNL1        0.0996
     19 C         143.9562  138.7271  161.0877 C.ar    1  UNL1        0.0927
     20 N         143.7138  138.6168  162.5639 N.ar    1  UNL1       -0.3386
     21 H         143.8151  137.8023  163.1076 H       1  UNL1        0.1672
     22 C         143.7995  140.6980  159.2888 C.ar    1  UNL1        0.0192
     23 C         143.4377  139.8461  158.1084 C.ar    1  UNL1        0.0015
     24 C         143.5549  140.4003  156.7195 C.ar    1  UNL1        0.0000
     25 C         144.0339  141.8064  156.5109 C.ar    1  UNL1        0.0000
     26 C         144.3957  142.6583  157.6913 C.ar    1  UNL1        0.0000
     27 C         144.2785  142.1041  159.0803 C.ar    1  UNL1        0.0015
     28 C         140.2215  143.1143  163.8083 C.3     1  UNL1        0.0252
     29 C         138.7833  142.7479  163.5914 C.3     1  UNL1        0.0339
     30 C         137.8702  143.6913  162.8658 C.3     1  UNL1        0.1422
     31 O         138.3954  145.0010  162.3572 O.3     1  UNL1       -0.3538
     32 C         139.8337  145.3675  162.5741 C.3     1  UNL1        0.1422
     33 C         140.7467  144.4242  163.2996 C.3     1  UNL1        0.0339
@<TRIPOS>BOND
     1     1     2    1
     2     2    16    1
     3    16    17   ar
     4    17    18   ar
     5    18    22    1
     6    22    23   ar
     7    23    24   ar
     8    24    25   ar
     9    25    26   ar
    10    26    27   ar
    11    18    19   ar
    12    19    20   ar
    13     2     3    1
    14     3     4    1
    15     4     5    2
    16     5     6    1
    17     6     7    2
    18     7     8    1
    19     8     9    1
    20     9    10    2
    21    10    11    1
    22    11    12    2
    23     5    13    1
    24    13    28    1
    25    28    29    1
    26    29    30    1
    27    30    31    1
    28    31    32    1
    29    32    33    1
    30    13    14    1
    31    14     2    1
    32    20    16   ar
    33    12     4    1
    34    33    28    1
    35    27    22   ar
    36    12     7    1
    37    20    21    1
    38    14    15    1
@<TRIPOS>MOLECULE
*****
 33 38 0 0 0
SMALL
GASTEIGER

@<TRIPOS>ATOM
      1 C         138.4778  138.8975  163.6849 C.3     1  UNL1        0.0238
      2 C         139.5316  139.9648  163.6763 C.3     1  UNL1        0.0973
      3 C         139.2867  139.8526  165.1519 C.3     1  UNL1        0.0493
      4 C         140.0536  140.7180  166.1074 C.2     1  UNL1       -0.0045
      5 C         141.0654  141.6956  165.5873 C.2     1  UNL1        0.0689
      6 N         141.6646  142.4112  166.7615 N.2     1  UNL1       -0.2526
      7 C         141.0232  141.8759  168.0073 C.2     1  UNL1        0.0627
      8 C         141.2171  142.2062  169.4576 C.3     1  UNL1        0.0717
      9 C         140.4154  141.4900  170.5036 C.2     1  UNL1       -0.0198
     10 C         139.4197  140.4435  170.0993 C.2     1  UNL1       -0.0042
     11 C         139.2257  140.1132  168.6491 C.2     1  UNL1        0.0006
     12 C         140.0275  140.8294  167.6031 C.2     1  UNL1        0.0111
     13 C         141.3103  141.8078  164.1117 C.3     1  UNL1        0.0948
     14 N         140.5435  140.9424  163.1562 N.3     1  UNL1       -0.2901
     15 H         141.2312  140.4028  162.6307 H       1  UNL1        0.1239
     16 C         139.4106  139.7063  162.2037 C.ar    1  UNL1        0.1301
     17 N         140.4310  139.0243  161.3415 N.ar    1  UNL1       -0.2298
     18 C         139.8989  138.9809  159.9397 C.ar    1  UNL1        0.0996
     19 C         138.5496  139.6361  159.9355 C.ar    1  UNL1        0.0927
     20 N         138.2478  140.0844  161.3348 N.ar    1  UNL1       -0.3386
     21 H         137.4301  140.5458  161.6309 H       1  UNL1        0.1672
     22 C         140.5941  138.3866  158.7508 C.ar    1  UNL1        0.0192
     23 C         142.0828  138.2037  158.7665 C.ar    1  UNL1        0.0015
     24 C         142.7780  137.6094  157.5776 C.ar    1  UNL1        0.0000
     25 C         141.9846  137.1981  156.3729 C.ar    1  UNL1        0.0000
     26 C         140.4959  137.3810  156.3572 C.ar    1  UNL1        0.0000
     27 C         139.8007  137.9752  157.5461 C.ar    1  UNL1        0.0015
     28 C         142.3222  142.7854  163.5916 C.3     1  UNL1        0.0252
     29 C         143.4407  142.3106  162.7122 C.3     1  UNL1        0.0339
     30 C         144.4525  143.2883  162.1921 C.3     1  UNL1        0.1422
     31 O         144.3457  144.7407  162.5514 O.3     1  UNL1       -0.3538
     32 C         143.2272  145.2155  163.4308 C.3     1  UNL1        0.1422
     33 C         142.2154  144.2379  163.9509 C.3     1  UNL1        0.0339
@<TRIPOS>BOND
     1     1     2    1
     2     2    16    1
     3    16    17   ar
     4    17    18   ar
     5    18    22    1
     6    22    23   ar
     7    23    24   ar
     8    24    25   ar
     9    25    26   ar
    10    26    27   ar
    11    18    19   ar
    12    19    20   ar
    13     2     3    1
    14     3     4    1
    15     4     5    2
    16     5     6    1
    17     6     7    2
    18     7     8    1
    19     8     9    1
    20     9    10    2
    21    10    11    1
    22    11    12    2
    23     5    13    1
    24    13    28    1
    25    28    29    1
    26    29    30    1
    27    30    31    1
    28    31    32    1
    29    32    33    1
    30    13    14    1
    31    14     2    1
    32    20    16   ar
    33    12     4    1
    34    33    28    1
    35    27    22   ar
    36    12     7    1
    37    20    21    1
    38    14    15    1
@<TRIPOS>MOLECULE
*****
 33 38 0 0 0
SMALL
GASTEIGER

@<TRIPOS>ATOM
      1 C         144.1607  137.9311  161.3310 C.3     1  UNL1        0.0238
      2 C         142.8610  138.6798  161.3415 C.3     1  UNL1        0.0973
      3 C         142.7833  138.0422  159.9860 C.3     1  UNL1        0.0493
      4 C         141.5897  138.2844  159.1105 C.2     1  UNL1       -0.0045
      5 C         140.4737  139.1643  159.5906 C.2     1  UNL1        0.0689
      6 N         139.4308  139.2191  158.5139 N.2     1  UNL1       -0.2526
      7 C         139.9021  138.3731  157.3684 C.2     1  UNL1        0.0627
      8 C         139.2888  138.0542  156.0373 C.3     1  UNL1        0.0717
      9 C         140.0097  137.1576  155.0749 C.2     1  UNL1       -0.0198
     10 C         141.3440  136.5799  155.4436 C.2     1  UNL1       -0.0042
     11 C         141.9574  136.8988  156.7747 C.2     1  UNL1        0.0006
     12 C         141.2364  137.7955  157.7372 C.2     1  UNL1        0.0111
     13 C         140.5514  139.8019  160.9461 C.3     1  UNL1        0.0948
     14 N         141.7451  139.5596  161.8216 N.3     1  UNL1       -0.2901
     15 H         141.3966  139.1475  162.6871 H       1  UNL1        0.1239
     16 C         143.3901  139.0573  162.6934 C.ar    1  UNL1        0.1301
     17 N         142.5668  139.4477  163.8849 N.ar    1  UNL1       -0.2298
     18 C         143.5033  139.7424  165.0190 C.ar    1  UNL1        0.0996
     19 C         144.9054  139.5342  164.5285 C.ar    1  UNL1        0.0927
     20 N         144.8355  139.1107  163.0912 N.ar    1  UNL1       -0.3386
     21 H         145.6034  138.9042  162.5107 H       1  UNL1        0.1672
     22 C         143.1071  140.1703  166.4010 C.ar    1  UNL1        0.0192
     23 C         142.9406  141.6274  166.7162 C.ar    1  UNL1        0.0015
     24 C         142.5444  142.0552  168.0982 C.ar    1  UNL1        0.0000
     25 C         142.3149  141.0262  169.1651 C.ar    1  UNL1        0.0000
     26 C         142.4814  139.5691  168.8499 C.ar    1  UNL1        0.0000
     27 C         142.8776  139.1412  167.4679 C.ar    1  UNL1        0.0015
     28 C         139.4355  140.6818  161.4262 C.3     1  UNL1        0.0252
     29 C         138.4806  140.1804  162.4686 C.3     1  UNL1        0.0339
     30 C         137.3646  141.0604  162.9487 C.3     1  UNL1        0.1422
     31 O         137.2036  142.4416  162.3863 O.3     1  UNL1       -0.3538
     32 C         138.1586  142.9430  161.3438 C.3     1  UNL1        0.1422
     33 C         139.2744  142.0631  160.8638 C.3     1  UNL1        0.0339
@<TRIPOS>BOND
     1     1     2    1
     2     2    16    1
     3    16    17   ar
     4    17    18   ar
     5    18    22    1
     6    22    23   ar
     7    23    24   ar
     8    24    25   ar
     9    25    26   ar
    10    26    27   ar
    11    18    19   ar
    12    19    20   ar
    13     2     3    1
    14     3     4    1
    15     4     5    2
    16     5     6    1
    17     6     7    2
    18     7     8    1
    19     8     9    1
    20     9    10    2
    21    10    11    1
    22    11    12    2
    23     5    13    1
    24    13    28    1
    25    28    29    1
    26    29    30    1
    27    30    31    1
    28    31    32    1
    29    32    33    1
    30    13    14    1
    31    14     2    1
    32    20    16   ar
    33    12     4    1
    34    33    28    1
    35    27    22   ar
    36    12     7    1
    37    20    21    1
    38    14    15    1
@<TRIPOS>MOLECULE
*****
 33 38 0 0 0
SMALL
GASTEIGER

@<TRIPOS>ATOM
      1 C         142.9330  138.2509  163.5519 C.3     1  UNL1        0.0238
      2 C         142.1166  139.4490  163.1673 C.3     1  UNL1        0.0973
      3 C         142.3674  138.8587  161.8114 C.3     1  UNL1        0.0493
      4 C         141.8131  139.5270  160.5882 C.2     1  UNL1       -0.0045
      5 C         141.0081  140.7857  160.7210 C.2     1  UNL1        0.0689
      6 N         140.5928  141.2174  159.3459 N.2     1  UNL1       -0.2526
      7 C         141.1410  140.2256  158.3632 C.2     1  UNL1        0.0627
      8 C         141.0509  140.1388  156.8684 C.3     1  UNL1        0.0717
      9 C         141.7151  139.0073  156.1415 C.2     1  UNL1       -0.0198
     10 C         142.4693  137.9625  156.9093 C.2     1  UNL1       -0.0042
     11 C         142.5594  138.0493  158.4041 C.2     1  UNL1        0.0006
     12 C         141.8953  139.1808  159.1310 C.2     1  UNL1        0.0111
     13 C         140.7574  141.3761  162.0770 C.3     1  UNL1        0.0948
     14 N         141.3116  140.7077  163.3001 N.3     1  UNL1       -0.2901
     15 H         140.5172  140.4872  163.9007 H       1  UNL1        0.1239
     16 C         142.1494  139.6233  164.6568 C.ar    1  UNL1        0.1301
     17 N         141.2353  140.4981  165.4625 N.ar    1  UNL1       -0.2298
     18 C         141.6230  140.3687  166.9057 C.ar    1  UNL1        0.0996
     19 C         142.7766  139.4140  166.9921 C.ar    1  UNL1        0.0927
     20 N         143.1020  138.9533  165.6022 N.ar    1  UNL1       -0.3386
     21 H         143.8154  138.3219  165.3540 H       1  UNL1        0.1672
     22 C         140.9713  141.0709  168.0600 C.ar    1  UNL1        0.0192
     23 C         139.9541  140.3533  168.8969 C.ar    1  UNL1        0.0015
     24 C         139.3025  141.0555  170.0511 C.ar    1  UNL1        0.0000
     25 C         139.6680  142.4752  170.3686 C.ar    1  UNL1        0.0000
     26 C         140.6853  143.1928  169.5317 C.ar    1  UNL1        0.0000
     27 C         141.3369  142.4906  168.3775 C.ar    1  UNL1        0.0015
     28 C         139.9524  142.6348  162.2098 C.3     1  UNL1        0.0252
     29 C         138.5495  142.5757  162.7373 C.3     1  UNL1        0.0339
     30 C         137.7445  143.8345  162.8700 C.3     1  UNL1        0.1422
     31 O         138.3425  145.1523  162.4753 O.3     1  UNL1       -0.3538
     32 C         139.7454  145.2114  161.9478 C.3     1  UNL1        0.1422
     33 C         140.5503  143.9527  161.8150 C.3     1  UNL1        0.0339
@<TRIPOS>BOND
     1     1     2    1
     2     2    16    1
     3    16    17   ar
     4    17    18   ar
     5    18    22    1
     6    22    23   ar
     7    23    24   ar
     8    24    25   ar
     9    25    26   ar
    10    26    27   ar
    11    18    19   ar
    12    19    20   ar
    13     2     3    1
    14     3     4    1
    15     4     5    2
    16     5     6    1
    17     6     7    2
    18     7     8    1
    19     8     9    1
    20     9    10    2
    21    10    11    1
    22    11    12    2
    23     5    13    1
    24    13    28    1
    25    28    29    1
    26    29    30    1
    27    30    31    1
    28    31    32    1
    29    32    33    1
    30    13    14    1
    31    14     2    1
    32    20    16   ar
    33    12     4    1
    34    33    28    1
    35    27    22   ar
    36    12     7    1
    37    20    21    1
    38    14    15    1
@<TRIPOS>MOLECULE
*****
 33 38 0 0 0
SMALL
GASTEIGER

@<TRIPOS>ATOM
      1 C         137.7111  139.8147  162.3956 C.3     1  UNL1        0.0238
      2 C         138.8192  140.8255  162.3771 C.3     1  UNL1        0.0973
      3 C         138.3294  140.9501  160.9648 C.3     1  UNL1        0.0493
      4 C         138.9842  141.9204  160.0268 C.2     1  UNL1       -0.0045
      5 C         140.1288  142.7659  160.5011 C.2     1  UNL1        0.0689
      6 N         140.5730  143.6284  159.3571 N.2     1  UNL1       -0.2526
      7 C         139.7030  143.3159  158.1758 C.2     1  UNL1        0.0627
      8 C         139.6782  143.8562  156.7767 C.3     1  UNL1        0.0717
      9 C         138.6713  143.3408  155.7916 C.2     1  UNL1       -0.0198
     10 C         137.6893  142.2852  156.2055 C.2     1  UNL1       -0.0042
     11 C         137.7142  141.7449  157.6045 C.2     1  UNL1        0.0006
     12 C         138.7211  142.2603  158.5897 C.2     1  UNL1        0.0111
     13 C         140.6185  142.6412  161.9134 C.3     1  UNL1        0.0948
     14 N         139.9638  141.6710  162.8514 N.3     1  UNL1       -0.2901
     15 H         139.6204  142.2137  163.6439 H       1  UNL1        0.1239
     16 C         138.9241  140.3497  163.7958 C.ar    1  UNL1        0.1301
     17 N         139.3702  141.1697  164.9699 N.ar    1  UNL1       -0.2298
     18 C         139.3231  140.2973  166.1892 C.ar    1  UNL1        0.0996
     19 C         138.8479  138.9381  165.7687 C.ar    1  UNL1        0.0927
     20 N         138.6013  138.9706  164.2895 N.ar    1  UNL1       -0.3386
     21 H         138.2834  138.2187  163.7392 H       1  UNL1        0.1672
     22 C         139.6874  140.7113  167.5842 C.ar    1  UNL1        0.0192
     23 C         140.5348  141.9286  167.8080 C.ar    1  UNL1        0.0015
     24 C         140.8990  142.3427  169.2030 C.ar    1  UNL1        0.0000
     25 C         140.4159  141.5396  170.3741 C.ar    1  UNL1        0.0000
     26 C         139.5684  140.3223  170.1502 C.ar    1  UNL1        0.0000
     27 C         139.2042  139.9082  168.7553 C.ar    1  UNL1        0.0015
     28 C         141.7631  143.4868  162.3877 C.3     1  UNL1        0.0252
     29 C         143.1588  143.1856  161.9283 C.3     1  UNL1        0.0339
     30 C         144.3034  144.0312  162.4027 C.3     1  UNL1        0.1422
     31 O         144.0522  145.1780  163.3364 O.3     1  UNL1       -0.3538
     32 C         142.6564  145.4792  163.7958 C.3     1  UNL1        0.1422
     33 C         141.5119  144.6336  163.3214 C.3     1  UNL1        0.0339
@<TRIPOS>BOND
     1     1     2    1
     2     2    16    1
     3    16    17   ar
     4    17    18   ar
     5    18    22    1
     6    22    23   ar
     7    23    24   ar
     8    24    25   ar
     9    25    26   ar
    10    26    27   ar
    11    18    19   ar
    12    19    20   ar
    13     2     3    1
    14     3     4    1
    15     4     5    2
    16     5     6    1
    17     6     7    2
    18     7     8    1
    19     8     9    1
    20     9    10    2
    21    10    11    1
    22    11    12    2
    23     5    13    1
    24    13    28    1
    25    28    29    1
    26    29    30    1
    27    30    31    1
    28    31    32    1
    29    32    33    1
    30    13    14    1
    31    14     2    1
    32    20    16   ar
    33    12     4    1
    34    33    28    1
    35    27    22   ar
    36    12     7    1
    37    20    21    1
    38    14    15    1
@<TRIPOS>MOLECULE
*****
 33 38 0 0 0
SMALL
GASTEIGER

@<TRIPOS>ATOM
      1 C         142.5842  137.6823  160.5016 C.3     1  UNL1        0.0238
      2 C         142.6566  139.1418  160.8398 C.3     1  UNL1        0.0973
      3 C         143.2994  139.1564  159.4845 C.3     1  UNL1        0.0493
      4 C         143.7826  140.4493  158.8974 C.2     1  UNL1       -0.0045
      5 C         143.6230  141.7278  159.6655 C.2     1  UNL1        0.0689
      6 N         144.1919  142.8408  158.8364 N.2     1  UNL1       -0.2526
      7 C         144.7031  142.2502  157.5558 C.2     1  UNL1        0.0627
      8 C         145.3663  142.8673  156.3602 C.3     1  UNL1        0.0717
      9 C         145.7764  142.0064  155.2024 C.2     1  UNL1       -0.0198
     10 C         145.5234  140.5283  155.2401 C.2     1  UNL1       -0.0042
     11 C         144.8602  139.9112  156.4357 C.2     1  UNL1        0.0006
     12 C         144.4501  140.7722  157.5935 C.2     1  UNL1        0.0111
     13 C         142.9803  141.7133  161.0208 C.3     1  UNL1        0.0948
     14 N         142.4971  140.4203  161.6079 N.3     1  UNL1       -0.2901
     15 H         141.4994  140.5332  161.7878 H       1  UNL1        0.1239
     16 C         141.9888  138.6204  162.0776 C.ar    1  UNL1        0.1301
     17 N         141.4254  139.4513  163.1921 N.ar    1  UNL1       -0.2298
     18 C         140.8555  138.5210  164.2214 C.ar    1  UNL1        0.0996
     19 C         141.0665  137.1151  163.7431 C.ar    1  UNL1        0.0927
     20 N         141.7669  137.1765  162.4181 N.ar    1  UNL1       -0.3386
     21 H         142.0342  136.4047  161.8685 H       1  UNL1        0.1672
     22 C         140.1911  138.9256  165.5040 C.ar    1  UNL1        0.0192
     23 C         138.7649  138.5402  165.7639 C.ar    1  UNL1        0.0015
     24 C         138.1005  138.9448  167.0464 C.ar    1  UNL1        0.0000
     25 C         138.8622  139.7347  168.0691 C.ar    1  UNL1        0.0000
     26 C         140.2884  140.1201  167.8092 C.ar    1  UNL1        0.0000
     27 C         140.9528  139.7155  166.5266 C.ar    1  UNL1        0.0015
     28 C         142.8207  142.9917  161.7890 C.3     1  UNL1        0.0252
     29 C         144.0017  143.6013  162.4842 C.3     1  UNL1        0.0339
     30 C         143.8421  144.8799  163.2524 C.3     1  UNL1        0.1422
     31 O         142.5015  145.5487  163.3252 O.3     1  UNL1       -0.3538
     32 C         141.3204  144.9391  162.6299 C.3     1  UNL1        0.1422
     33 C         141.4800  143.6606  161.8618 C.3     1  UNL1        0.0339
@<TRIPOS>BOND
     1     1     2    1
     2     2    16    1
     3    16    17   ar
     4    17    18   ar
     5    18    22    1
     6    22    23   ar
     7    23    24   ar
     8    24    25   ar
     9    25    26   ar
    10    26    27   ar
    11    18    19   ar
    12    19    20   ar
    13     2     3    1
    14     3     4    1
    15     4     5    2
    16     5     6    1
    17     6     7    2
    18     7     8    1
    19     8     9    1
    20     9    10    2
    21    10    11    1
    22    11    12    2
    23     5    13    1
    24    13    28    1
    25    28    29    1
    26    29    30    1
    27    30    31    1
    28    31    32    1
    29    32    33    1
    30    13    14    1
    31    14     2    1
    32    20    16   ar
    33    12     4    1
    34    33    28    1
    35    27    22   ar
    36    12     7    1
    37    20    21    1
    38    14    15    1
@<TRIPOS>MOLECULE
*****
 33 38 0 0 0
SMALL
GASTEIGER

@<TRIPOS>ATOM
      1 C         138.3761  138.7307  162.8580 C.3     1  UNL1        0.0238
      2 C         139.4256  139.7960  162.9747 C.3     1  UNL1        0.0973
      3 C         139.0717  139.6196  164.4216 C.3     1  UNL1        0.0493
      4 C         139.7636  140.4412  165.4686 C.2     1  UNL1       -0.0045
      5 C         140.8095  141.4393  165.0686 C.2     1  UNL1        0.0689
      6 N         141.3182  142.1019  166.3144 N.2     1  UNL1       -0.2526
      7 C         140.5868  141.5134  167.4843 C.2     1  UNL1        0.0627
      8 C         140.6715  141.7796  168.9580 C.3     1  UNL1        0.0717
      9 C         139.7954  141.0193  169.9090 C.2     1  UNL1       -0.0198
     10 C         138.8346  139.9929  169.3862 C.2     1  UNL1       -0.0042
     11 C         138.7498  139.7268  167.9125 C.2     1  UNL1        0.0006
     12 C         139.6259  140.4870  166.9615 C.2     1  UNL1        0.0111
     13 C         141.1634  141.6157  163.6217 C.3     1  UNL1        0.0948
     14 N         140.4715  140.7941  162.5747 N.3     1  UNL1       -0.2901
     15 H         141.1975  140.2771  162.0787 H       1  UNL1        0.1239
     16 C         139.4151  139.6025  161.4872 C.ar    1  UNL1        0.1301
     17 N         138.9384  140.5984  160.4719 N.ar    1  UNL1       -0.2298
     18 C         139.1081  139.9905  159.1112 C.ar    1  UNL1        0.0996
     19 C         139.6895  138.6188  159.2854 C.ar    1  UNL1        0.0927
     20 N         139.8792  138.3790  160.7539 N.ar    1  UNL1       -0.3386
     21 H         140.2443  137.5621  161.1644 H       1  UNL1        0.1672
     22 C         138.7577  140.6402  157.8054 C.ar    1  UNL1        0.0192
     23 C         137.3333  141.0038  157.5069 C.ar    1  UNL1        0.0015
     24 C         136.9830  141.6536  156.2011 C.ar    1  UNL1        0.0000
     25 C         138.0569  141.9397  155.1937 C.ar    1  UNL1        0.0000
     26 C         139.4813  141.5760  155.4922 C.ar    1  UNL1        0.0000
     27 C         139.8316  140.9263  156.7980 C.ar    1  UNL1        0.0015
     28 C         142.2093  142.6138  163.2217 C.3     1  UNL1        0.0252
     29 C         143.4437  142.1587  162.5013 C.3     1  UNL1        0.0339
     30 C         144.4896  143.1569  162.1013 C.3     1  UNL1        0.1422
     31 O         144.3010  144.6100  162.4218 O.3     1  UNL1       -0.3538
     32 C         143.0665  145.0651  163.1422 C.3     1  UNL1        0.1422
     33 C         142.0207  144.0670  163.5421 C.3     1  UNL1        0.0339
@<TRIPOS>BOND
     1     1     2    1
     2     2    16    1
     3    16    17   ar
     4    17    18   ar
     5    18    22    1
     6    22    23   ar
     7    23    24   ar
     8    24    25   ar
     9    25    26   ar
    10    26    27   ar
    11    18    19   ar
    12    19    20   ar
    13     2     3    1
    14     3     4    1
    15     4     5    2
    16     5     6    1
    17     6     7    2
    18     7     8    1
    19     8     9    1
    20     9    10    2
    21    10    11    1
    22    11    12    2
    23     5    13    1
    24    13    28    1
    25    28    29    1
    26    29    30    1
    27    30    31    1
    28    31    32    1
    29    32    33    1
    30    13    14    1
    31    14     2    1
    32    20    16   ar
    33    12     4    1
    34    33    28    1
    35    27    22   ar
    36    12     7    1
    37    20    21    1
    38    14    15    1
