@<TRIPOS>MOLECULE
*****
 33 36 0 0 0
SMALL
GASTEIGER

@<TRIPOS>ATOM
      1 N         138.1373  140.0449  162.4664 N.3     1  UNL1       -0.2710
      2 C         137.7859  140.7925  163.7185 C.3     1  UNL1        0.0735
      3 C         137.6433  142.2853  163.6857 C.3     1  UNL1        0.0331
      4 C         137.8520  143.0305  162.4008 C.3     1  UNL1        0.0570
      5 C         138.2033  142.2830  161.1487 C.3     1  UNL1        0.0331
      6 C         138.3460  140.7901  161.1815 C.3     1  UNL1        0.0735
      7 N         137.7093  144.5234  162.3679 N.3     1  UNL1       -0.2947
      8 H         136.9170  144.7568  162.9663 H       1  UNL1        0.1235
      9 C         138.8504  145.3956  162.8006 C.3     1  UNL1        0.0972
     10 C         140.2632  144.9201  162.6332 C.ar    1  UNL1        0.0135
     11 C         140.9243  144.9917  161.2887 C.ar    1  UNL1        0.0955
     12 N         142.3370  144.5162  161.1213 N.ar    1  UNL1       -0.2477
     13 C         143.0887  143.9691  162.2985 C.ar    1  UNL1        0.0689
     14 C         144.5015  143.4937  162.1311 C.3     1  UNL1        0.0528
     15 C         142.4276  143.8975  163.6430 C.ar    1  UNL1        0.0817
     16 C         141.0148  144.3731  163.8104 C.ar    1  UNL1        0.0101
     17 C         143.1792  143.3505  164.8202 C.1     1  UNL1        0.1016
     18 N         143.9308  142.8034  165.9975 N.1     1  UNL1       -0.1908
     19 C         138.2799  138.5520  162.4993 C.3     1  UNL1        0.0970
     20 C         138.9943  137.8919  163.6412 C.3     1  UNL1        0.1265
     21 C         140.0066  139.6396  167.6625 C.ar    1  UNL1        0.1594
     22 C         141.4227  140.0183  167.9806 C.ar    1  UNL1        0.1374
     23 N         142.5014  139.8144  166.9584 N.ar    1  UNL1       -0.2206
     24 C         142.1640  139.2318  165.6180 C.ar    1  UNL1        0.1788
     25 N         143.2426  139.0280  164.5958 N.ar    1  UNL1       -0.2188
     26 C         142.9052  138.4454  163.2554 C.ar    1  UNL1        0.1612
     27 C         141.4891  138.0667  162.9371 C.ar    1  UNL1        0.2804
     28 O         141.1516  137.4841  161.5967 O.2     1  UNL1       -0.2653
     29 N         140.4104  138.2706  163.9594 N.ar    1  UNL1       -0.2900
     30 C         140.7479  138.8532  165.2998 C.ar    1  UNL1        0.1016
     31 C         139.6692  139.0570  166.3220 C.ar    1  UNL1        0.0589
     32 C         139.1890  140.6966  169.8904 C.3     1  UNL1        0.2525
     33 O         138.9280  139.8434  168.6847 O.3     1  UNL1       -0.4698
@<TRIPOS>BOND
     1    32    33    1
     2    33    21    1
     3    21    22   ar
     4    22    23   ar
     5    23    24   ar
     6    24    25   ar
     7    25    26   ar
     8    26    27   ar
     9    27    28    2
    10    27    29   ar
    11    29    20    1
    12    20    19    1
    13    19     1    1
    14     1     2    1
    15     2     3    1
    16     3     4    1
    17     4     7    1
    18     7     9    1
    19     9    10    1
    20    10    11   ar
    21    11    12   ar
    22    12    13   ar
    23    13    14    1
    24    13    15   ar
    25    15    17    1
    26    17    18    3
    27    15    16   ar
    28     4     5    1
    29     5     6    1
    30    29    30   ar
    31    30    31   ar
    32    31    21   ar
    33    30    24   ar
    34     6     1    1
    35    16    10   ar
    36     7     8    1
@<TRIPOS>MOLECULE
*****
 33 36 0 0 0
SMALL
GASTEIGER

@<TRIPOS>ATOM
      1 N         141.1691  144.7186  162.6839 N.3     1  UNL1       -0.2710
      2 C         141.4394  143.9284  161.4379 C.3     1  UNL1        0.0735
      3 C         142.7861  143.3038  161.2233 C.3     1  UNL1        0.0331
      4 C         143.8625  143.4693  162.2548 C.3     1  UNL1        0.0570
      5 C         143.5922  144.2595  163.5008 C.3     1  UNL1        0.0331
      6 C         142.2455  144.8841  163.7154 C.3     1  UNL1        0.0735
      7 N         145.2093  142.8447  162.0402 N.3     1  UNL1       -0.2947
      8 H         145.9007  143.5828  162.1725 H       1  UNL1        0.1235
      9 C         145.6433  141.6875  162.8902 C.3     1  UNL1        0.0972
     10 C         144.6390  140.6671  163.3375 C.ar    1  UNL1        0.0135
     11 C         143.8574  139.8885  162.3212 C.ar    1  UNL1        0.0955
     12 N         142.8530  138.8681  162.7684 N.ar    1  UNL1       -0.2477
     13 C         142.6302  138.6264  164.2320 C.ar    1  UNL1        0.0689
     14 C         141.6258  137.6060  164.6792 C.3     1  UNL1        0.0528
     15 C         143.4118  139.4050  165.2483 C.ar    1  UNL1        0.0817
     16 C         144.4162  140.4254  164.8010 C.ar    1  UNL1        0.0101
     17 C         143.1890  139.1633  166.7118 C.1     1  UNL1        0.1016
     18 N         142.9663  138.9215  168.1754 N.1     1  UNL1       -0.1908
     19 C         139.8222  145.3433  162.8985 C.3     1  UNL1        0.0970
     20 C         138.8462  144.7138  163.8478 C.3     1  UNL1        0.1265
     21 C         140.2973  142.4572  167.4606 C.ar    1  UNL1        0.1594
     22 C         140.1619  140.9644  167.5167 C.ar    1  UNL1        0.1374
     23 N         139.5429  140.2238  166.3686 N.ar    1  UNL1       -0.2206
     24 C         139.0592  140.9760  165.1643 C.ar    1  UNL1        0.1788
     25 N         138.4401  140.2354  164.0162 N.ar    1  UNL1       -0.2188
     26 C         137.9564  140.9875  162.8119 C.ar    1  UNL1        0.1612
     27 C         138.0918  142.4804  162.7558 C.ar    1  UNL1        0.2804
     28 O         137.6081  143.2326  161.5515 O.2     1  UNL1       -0.2653
     29 N         138.7109  143.2210  163.9039 N.ar    1  UNL1       -0.2900
     30 C         139.1946  142.4688  165.1082 C.ar    1  UNL1        0.1016
     31 C         139.8136  143.2094  166.2564 C.ar    1  UNL1        0.0589
     32 C         140.2916  143.1279  169.9706 C.3     1  UNL1        0.2525
     33 O         140.9164  143.1979  168.6087 O.3     1  UNL1       -0.4698
@<TRIPOS>BOND
     1    32    33    1
     2    33    21    1
     3    21    22   ar
     4    22    23   ar
     5    23    24   ar
     6    24    25   ar
     7    25    26   ar
     8    26    27   ar
     9    27    28    2
    10    27    29   ar
    11    29    20    1
    12    20    19    1
    13    19     1    1
    14     1     2    1
    15     2     3    1
    16     3     4    1
    17     4     7    1
    18     7     9    1
    19     9    10    1
    20    10    11   ar
    21    11    12   ar
    22    12    13   ar
    23    13    14    1
    24    13    15   ar
    25    15    17    1
    26    17    18    3
    27    15    16   ar
    28     4     5    1
    29     5     6    1
    30    29    30   ar
    31    30    31   ar
    32    31    21   ar
    33    30    24   ar
    34     6     1    1
    35    16    10   ar
    36     7     8    1
@<TRIPOS>MOLECULE
*****
 33 36 0 0 0
SMALL
GASTEIGER

@<TRIPOS>ATOM
      1 N         137.8835  142.8884  162.9683 N.3     1  UNL1       -0.2710
      2 C         137.7321  141.7500  163.9332 C.3     1  UNL1        0.0735
      3 C         137.8423  140.3352  163.4473 C.3     1  UNL1        0.0331
      4 C         138.1039  140.0588  161.9964 C.3     1  UNL1        0.0570
      5 C         138.2552  141.1972  161.0314 C.3     1  UNL1        0.0331
      6 C         138.1450  142.6120  161.5174 C.3     1  UNL1        0.0735
      7 N         138.2141  138.6440  161.5104 N.3     1  UNL1       -0.2947
      8 H         137.7398  138.6048  160.6082 H       1  UNL1        0.1235
      9 C         139.5646  138.0205  161.3170 C.3     1  UNL1        0.0972
     10 C         140.6214  138.1788  162.3696 C.ar    1  UNL1        0.0135
     11 C         140.4952  137.4502  163.6747 C.ar    1  UNL1        0.0955
     12 N         141.5520  137.6085  164.7273 N.ar    1  UNL1       -0.2477
     13 C         142.7351  138.4955  164.4749 C.ar    1  UNL1        0.0689
     14 C         143.7919  138.6538  165.5275 C.3     1  UNL1        0.0528
     15 C         142.8613  139.2240  163.1698 C.ar    1  UNL1        0.0817
     16 C         141.8044  139.0657  162.1172 C.ar    1  UNL1        0.0101
     17 C         144.0444  140.1109  162.9173 C.1     1  UNL1        0.1016
     18 N         145.2275  140.9978  162.6649 N.1     1  UNL1       -0.1908
     19 C         137.7732  144.3032  163.4543 C.3     1  UNL1        0.0970
     20 C         138.8676  144.8960  164.2916 C.3     1  UNL1        0.1265
     21 C         140.9224  142.1411  167.1964 C.ar    1  UNL1        0.1594
     22 C         142.3476  141.7349  166.9648 C.ar    1  UNL1        0.1374
     23 N         143.0879  142.2470  165.7649 N.ar    1  UNL1       -0.2206
     24 C         142.4030  143.1652  164.7967 C.ar    1  UNL1        0.1788
     25 N         143.1433  143.6773  163.5968 N.ar    1  UNL1       -0.2188
     26 C         142.4584  144.5956  162.6285 C.ar    1  UNL1        0.1612
     27 C         141.0331  145.0019  162.8601 C.ar    1  UNL1        0.2804
     28 O         140.3482  145.9202  161.8918 O.2     1  UNL1       -0.2653
     29 N         140.2928  144.4898  164.0600 N.ar    1  UNL1       -0.2900
     30 C         140.9778  143.5715  165.0283 C.ar    1  UNL1        0.1016
     31 C         140.2375  143.0594  166.2281 C.ar    1  UNL1        0.0589
     32 C         139.7020  140.2084  168.4314 C.3     1  UNL1        0.2525
     33 O         140.1820  141.6290  168.3963 O.3     1  UNL1       -0.4698
@<TRIPOS>BOND
     1    32    33    1
     2    33    21    1
     3    21    22   ar
     4    22    23   ar
     5    23    24   ar
     6    24    25   ar
     7    25    26   ar
     8    26    27   ar
     9    27    28    2
    10    27    29   ar
    11    29    20    1
    12    20    19    1
    13    19     1    1
    14     1     2    1
    15     2     3    1
    16     3     4    1
    17     4     7    1
    18     7     9    1
    19     9    10    1
    20    10    11   ar
    21    11    12   ar
    22    12    13   ar
    23    13    14    1
    24    13    15   ar
    25    15    17    1
    26    17    18    3
    27    15    16   ar
    28     4     5    1
    29     5     6    1
    30    29    30   ar
    31    30    31   ar
    32    31    21   ar
    33    30    24   ar
    34     6     1    1
    35    16    10   ar
    36     7     8    1
@<TRIPOS>MOLECULE
*****
 33 36 0 0 0
SMALL
GASTEIGER

@<TRIPOS>ATOM
      1 N         144.4732  140.2177  163.4926 N.3     1  UNL1       -0.2710
      2 C         143.8471  139.3827  164.5701 C.3     1  UNL1        0.0735
      3 C         142.7914  138.3761  164.2206 C.3     1  UNL1        0.0331
      4 C         142.3618  138.2045  162.7938 C.3     1  UNL1        0.0570
      5 C         142.9879  139.0395  161.7164 C.3     1  UNL1        0.0331
      6 C         144.0435  140.0461  162.0658 C.3     1  UNL1        0.0735
      7 N         141.3061  137.1978  162.4443 N.3     1  UNL1       -0.2947
      8 H         141.6744  136.2826  162.7036 H       1  UNL1        0.1235
      9 C         139.9390  137.3026  163.0528 C.3     1  UNL1        0.0972
     10 C         139.3431  138.6508  163.3307 C.ar    1  UNL1        0.0135
     11 C         138.8949  139.0011  164.7186 C.ar    1  UNL1        0.0955
     12 N         138.2990  140.3492  164.9964 N.ar    1  UNL1       -0.2477
     13 C         138.1513  141.3472  163.8863 C.ar    1  UNL1        0.0689
     14 C         137.5554  142.6954  164.1641 C.3     1  UNL1        0.0528
     15 C         138.5996  140.9969  162.4984 C.ar    1  UNL1        0.0817
     16 C         139.1955  139.6487  162.2206 C.ar    1  UNL1        0.0101
     17 C         138.4519  141.9948  161.3883 C.1     1  UNL1        0.1016
     18 N         138.3043  142.9928  160.2781 N.1     1  UNL1       -0.1908
     19 C         145.5289  141.2244  163.8421 C.3     1  UNL1        0.0970
     20 C         145.1345  142.6066  164.2713 C.3     1  UNL1        0.1265
     21 C         142.2284  142.1316  167.6741 C.ar    1  UNL1        0.1594
     22 C         140.8086  142.5891  167.5172 C.ar    1  UNL1        0.1374
     23 N         140.3574  143.2050  166.2260 N.ar    1  UNL1       -0.2206
     24 C         141.3261  143.3633  165.0918 C.ar    1  UNL1        0.1788
     25 N         140.8749  143.9792  163.8006 N.ar    1  UNL1       -0.2188
     26 C         141.8436  144.1375  162.6663 C.ar    1  UNL1        0.1612
     27 C         143.2635  143.6800  162.8232 C.ar    1  UNL1        0.2804
     28 O         144.2322  143.8383  161.6890 O.2     1  UNL1       -0.2653
     29 N         143.7147  143.0641  164.1144 N.ar    1  UNL1       -0.2900
     30 C         142.7459  142.9058  165.2487 C.ar    1  UNL1        0.1016
     31 C         143.1971  142.2899  166.5398 C.ar    1  UNL1        0.0589
     32 C         143.7224  142.1999  169.7985 C.3     1  UNL1        0.2525
     33 O         142.6796  141.5157  168.9653 O.3     1  UNL1       -0.4698
@<TRIPOS>BOND
     1    32    33    1
     2    33    21    1
     3    21    22   ar
     4    22    23   ar
     5    23    24   ar
     6    24    25   ar
     7    25    26   ar
     8    26    27   ar
     9    27    28    2
    10    27    29   ar
    11    29    20    1
    12    20    19    1
    13    19     1    1
    14     1     2    1
    15     2     3    1
    16     3     4    1
    17     4     7    1
    18     7     9    1
    19     9    10    1
    20    10    11   ar
    21    11    12   ar
    22    12    13   ar
    23    13    14    1
    24    13    15   ar
    25    15    17    1
    26    17    18    3
    27    15    16   ar
    28     4     5    1
    29     5     6    1
    30    29    30   ar
    31    30    31   ar
    32    31    21   ar
    33    30    24   ar
    34     6     1    1
    35    16    10   ar
    36     7     8    1
@<TRIPOS>MOLECULE
*****
 33 36 0 0 0
SMALL
GASTEIGER

@<TRIPOS>ATOM
      1 N         137.9844  142.7490  163.0526 N.3     1  UNL1       -0.2710
      2 C         138.1663  142.0015  161.7649 C.3     1  UNL1        0.0735
      3 C         138.3089  140.5084  161.7780 C.3     1  UNL1        0.0331
      4 C         138.2697  139.7628  163.0790 C.3     1  UNL1        0.0570
      5 C         138.0879  140.5102  164.3667 C.3     1  UNL1        0.0331
      6 C         137.9452  142.0033  164.3535 C.3     1  UNL1        0.0735
      7 N         138.4124  138.2696  163.0922 N.3     1  UNL1       -0.2947
      8 H         137.6216  137.8936  162.5691 H       1  UNL1        0.1235
      9 C         139.6470  137.6292  162.5304 C.3     1  UNL1        0.0972
     10 C         141.0002  138.0490  163.0230 C.ar    1  UNL1        0.0135
     11 C         142.1211  138.2589  162.0486 C.ar    1  UNL1        0.0955
     12 N         143.4743  138.6787  162.5411 N.ar    1  UNL1       -0.2477
     13 C         143.7065  138.8888  164.0081 C.ar    1  UNL1        0.0689
     14 C         145.0597  139.3087  164.5007 C.3     1  UNL1        0.0528
     15 C         142.5856  138.6790  164.9825 C.ar    1  UNL1        0.0817
     16 C         141.2324  138.2591  164.4899 C.ar    1  UNL1        0.0101
     17 C         142.8177  138.8890  166.4494 C.1     1  UNL1        0.1016
     18 N         143.0500  139.0990  167.9165 N.1     1  UNL1       -0.1908
     19 C         137.8417  144.2422  163.0393 C.3     1  UNL1        0.0970
     20 C         139.0528  145.1127  163.1984 C.3     1  UNL1        0.1265
     21 C         142.1967  142.8437  165.4826 C.ar    1  UNL1        0.1594
     22 C         143.4847  142.4665  164.8127 C.ar    1  UNL1        0.1374
     23 N         143.7247  142.8457  163.3814 N.ar    1  UNL1       -0.2206
     24 C         142.6768  143.6021  162.6200 C.ar    1  UNL1        0.1788
     25 N         142.9169  143.9812  161.1888 N.ar    1  UNL1       -0.2188
     26 C         141.8690  144.7376  160.4274 C.ar    1  UNL1        0.1612
     27 C         140.5809  145.1148  161.0972 C.ar    1  UNL1        0.2804
     28 O         139.5330  145.8711  160.3358 O.2     1  UNL1       -0.2653
     29 N         140.3408  144.7356  162.5285 N.ar    1  UNL1       -0.2900
     30 C         141.3888  143.9792  163.2899 C.ar    1  UNL1        0.1016
     31 C         141.1488  143.6000  164.7212 C.ar    1  UNL1        0.0589
     32 C         140.5548  142.2941  167.4196 C.3     1  UNL1        0.2525
     33 O         141.9566  142.4645  166.9139 O.3     1  UNL1       -0.4698
@<TRIPOS>BOND
     1    32    33    1
     2    33    21    1
     3    21    22   ar
     4    22    23   ar
     5    23    24   ar
     6    24    25   ar
     7    25    26   ar
     8    26    27   ar
     9    27    28    2
    10    27    29   ar
    11    29    20    1
    12    20    19    1
    13    19     1    1
    14     1     2    1
    15     2     3    1
    16     3     4    1
    17     4     7    1
    18     7     9    1
    19     9    10    1
    20    10    11   ar
    21    11    12   ar
    22    12    13   ar
    23    13    14    1
    24    13    15   ar
    25    15    17    1
    26    17    18    3
    27    15    16   ar
    28     4     5    1
    29     5     6    1
    30    29    30   ar
    31    30    31   ar
    32    31    21   ar
    33    30    24   ar
    34     6     1    1
    35    16    10   ar
    36     7     8    1
@<TRIPOS>MOLECULE
*****
 33 36 0 0 0
SMALL
GASTEIGER

@<TRIPOS>ATOM
      1 N         142.8968  144.0905  162.4149 N.3     1  UNL1       -0.2710
      2 C         142.2032  144.8351  163.5169 C.3     1  UNL1        0.0735
      3 C         140.7153  145.0206  163.4760 C.3     1  UNL1        0.0331
      4 C         139.9210  144.4614  162.3330 C.3     1  UNL1        0.0570
      5 C         140.6147  143.7167  161.2310 C.3     1  UNL1        0.0331
      6 C         142.1026  143.5313  161.2719 C.3     1  UNL1        0.0735
      7 N         138.4330  144.6467  162.2921 N.3     1  UNL1       -0.2947
      8 H         138.1330  144.4119  161.3459 H       1  UNL1        0.1235
      9 C         137.5547  143.8724  163.2296 C.3     1  UNL1        0.0972
     10 C         137.8843  142.4472  163.5613 C.ar    1  UNL1        0.0135
     11 C         137.6620  141.3693  162.5421 C.ar    1  UNL1        0.0955
     12 N         137.9917  139.9441  162.8738 N.ar    1  UNL1       -0.2477
     13 C         138.5436  139.5967  164.2247 C.ar    1  UNL1        0.0689
     14 C         138.8732  138.1715  164.5564 C.3     1  UNL1        0.0528
     15 C         138.7659  140.6747  165.2438 C.ar    1  UNL1        0.0817
     16 C         138.4362  142.0999  164.9121 C.ar    1  UNL1        0.0101
     17 C         139.3178  140.3274  166.5946 C.1     1  UNL1        0.1016
     18 N         139.8697  139.9801  167.9455 N.1     1  UNL1       -0.1908
     19 C         144.3848  143.9051  162.4559 C.3     1  UNL1        0.0970
     20 C         144.9653  142.5910  162.8872 C.3     1  UNL1        0.1265
     21 C         143.3867  138.9645  160.7408 C.ar    1  UNL1        0.1594
     22 C         142.5333  137.9719  161.4732 C.ar    1  UNL1        0.1374
     23 N         142.2061  138.1881  162.9210 N.ar    1  UNL1       -0.2206
     24 C         142.7323  139.3969  163.6365 C.ar    1  UNL1        0.1788
     25 N         142.4050  139.6131  165.0843 N.ar    1  UNL1       -0.2188
     26 C         142.9312  140.8219  165.7998 C.ar    1  UNL1        0.1612
     27 C         143.7847  141.8145  165.0674 C.ar    1  UNL1        0.2804
     28 O         144.3109  143.0233  165.7828 O.2     1  UNL1       -0.2653
     29 N         144.1119  141.5984  163.6196 N.ar    1  UNL1       -0.2900
     30 C         143.5856  140.3895  162.9041 C.ar    1  UNL1        0.1016
     31 C         143.9128  140.1733  161.4563 C.ar    1  UNL1        0.0589
     32 C         142.6945  138.1392  158.3766 C.3     1  UNL1        0.2525
     33 O         143.7139  138.7483  159.2930 O.3     1  UNL1       -0.4698
@<TRIPOS>BOND
     1    32    33    1
     2    33    21    1
     3    21    22   ar
     4    22    23   ar
     5    23    24   ar
     6    24    25   ar
     7    25    26   ar
     8    26    27   ar
     9    27    28    2
    10    27    29   ar
    11    29    20    1
    12    20    19    1
    13    19     1    1
    14     1     2    1
    15     2     3    1
    16     3     4    1
    17     4     7    1
    18     7     9    1
    19     9    10    1
    20    10    11   ar
    21    11    12   ar
    22    12    13   ar
    23    13    14    1
    24    13    15   ar
    25    15    17    1
    26    17    18    3
    27    15    16   ar
    28     4     5    1
    29     5     6    1
    30    29    30   ar
    31    30    31   ar
    32    31    21   ar
    33    30    24   ar
    34     6     1    1
    35    16    10   ar
    36     7     8    1
@<TRIPOS>MOLECULE
*****
 33 36 0 0 0
SMALL
GASTEIGER

@<TRIPOS>ATOM
      1 N         142.9218  141.5157  165.6981 N.3     1  UNL1       -0.2710
      2 C         142.9853  142.1397  164.3355 C.3     1  UNL1        0.0735
      3 C         143.4895  141.3435  163.1687 C.3     1  UNL1        0.0331
      4 C         143.9303  139.9231  163.3643 C.3     1  UNL1        0.0570
      5 C         143.8668  139.2991  164.7269 C.3     1  UNL1        0.0331
      6 C         143.3625  140.0953  165.8937 C.3     1  UNL1        0.0735
      7 N         144.4345  139.1268  162.1974 N.3     1  UNL1       -0.2947
      8 H         145.3585  138.7797  162.4550 H       1  UNL1        0.1235
      9 C         143.6522  137.9476  161.7000 C.3     1  UNL1        0.0972
     10 C         142.1528  137.9895  161.6972 C.ar    1  UNL1        0.0135
     11 C         141.3843  137.4133  162.8493 C.ar    1  UNL1        0.0955
     12 N         139.8849  137.4552  162.8465 N.ar    1  UNL1       -0.2477
     13 C         139.1540  138.0733  161.6915 C.ar    1  UNL1        0.0689
     14 C         137.6546  138.1152  161.6887 C.3     1  UNL1        0.0528
     15 C         139.9226  138.6494  160.5394 C.ar    1  UNL1        0.0817
     16 C         141.4220  138.6075  160.5423 C.ar    1  UNL1        0.0101
     17 C         139.1918  139.2675  159.3845 C.1     1  UNL1        0.1016
     18 N         138.4609  139.8856  158.2295 N.1     1  UNL1       -0.1908
     19 C         142.4175  142.3120  166.8650 C.3     1  UNL1        0.0970
     20 C         140.9421  142.4811  167.0761 C.3     1  UNL1        0.1265
     21 C         138.7191  143.8196  163.3996 C.ar    1  UNL1        0.1594
     22 C         137.7538  142.8894  162.7267 C.ar    1  UNL1        0.1374
     23 N         137.5294  141.5131  163.2793 N.ar    1  UNL1       -0.2206
     24 C         138.2703  141.0669  164.5048 C.ar    1  UNL1        0.1788
     25 N         138.0459  139.6906  165.0573 N.ar    1  UNL1       -0.2188
     26 C         138.7869  139.2444  166.2828 C.ar    1  UNL1        0.1612
     27 C         139.7523  140.1746  166.9558 C.ar    1  UNL1        0.2804
     28 O         140.4933  139.7284  168.1813 O.2     1  UNL1       -0.2653
     29 N         139.9767  141.5509  166.4032 N.ar    1  UNL1       -0.2900
     30 C         139.2357  141.9971  165.1776 C.ar    1  UNL1        0.1016
     31 C         139.4601  143.3734  164.6251 C.ar    1  UNL1        0.0589
     32 C         140.1543  145.4791  162.0080 C.3     1  UNL1        0.2525
     33 O         138.9436  145.1959  162.8470 O.3     1  UNL1       -0.4698
@<TRIPOS>BOND
     1    32    33    1
     2    33    21    1
     3    21    22   ar
     4    22    23   ar
     5    23    24   ar
     6    24    25   ar
     7    25    26   ar
     8    26    27   ar
     9    27    28    2
    10    27    29   ar
    11    29    20    1
    12    20    19    1
    13    19     1    1
    14     1     2    1
    15     2     3    1
    16     3     4    1
    17     4     7    1
    18     7     9    1
    19     9    10    1
    20    10    11   ar
    21    11    12   ar
    22    12    13   ar
    23    13    14    1
    24    13    15   ar
    25    15    17    1
    26    17    18    3
    27    15    16   ar
    28     4     5    1
    29     5     6    1
    30    29    30   ar
    31    30    31   ar
    32    31    21   ar
    33    30    24   ar
    34     6     1    1
    35    16    10   ar
    36     7     8    1
@<TRIPOS>MOLECULE
*****
 33 36 0 0 0
SMALL
GASTEIGER

@<TRIPOS>ATOM
      1 N         138.7167  143.2205  164.3875 N.3     1  UNL1       -0.2710
      2 C         137.8442  142.1685  163.7693 C.3     1  UNL1        0.0735
      3 C         137.8285  140.7796  164.3354 C.3     1  UNL1        0.0331
      4 C         138.6853  140.4426  165.5196 C.3     1  UNL1        0.0570
      5 C         139.5577  141.4946  166.1377 C.3     1  UNL1        0.0331
      6 C         139.5734  142.8836  165.5717 C.3     1  UNL1        0.0735
      7 N         138.6696  139.0535  166.0857 N.3     1  UNL1       -0.2947
      8 H         137.7440  138.9106  166.4897 H       1  UNL1        0.1235
      9 C         138.9394  137.8774  165.1946 C.3     1  UNL1        0.0972
     10 C         140.0590  137.9329  164.1979 C.ar    1  UNL1        0.0135
     11 C         139.8139  137.5374  162.7719 C.ar    1  UNL1        0.0955
     12 N         140.9334  137.5929  161.7752 N.ar    1  UNL1       -0.2477
     13 C         142.2982  138.0438  162.2044 C.ar    1  UNL1        0.0689
     14 C         143.4177  138.0993  161.2077 C.3     1  UNL1        0.0528
     15 C         142.5433  138.4393  163.6305 C.ar    1  UNL1        0.0817
     16 C         141.4236  138.3838  164.6272 C.ar    1  UNL1        0.0101
     17 C         143.9079  138.8903  164.0598 C.1     1  UNL1        0.1016
     18 N         145.2727  139.3412  164.4891 N.1     1  UNL1       -0.1908
     19 C         138.7323  144.6096  163.8214 C.3     1  UNL1        0.0970
     20 C         140.0382  145.3096  163.5880 C.3     1  UNL1        0.1265
     21 C         143.7882  142.8621  164.0321 C.ar    1  UNL1        0.1594
     22 C         144.6130  142.5279  162.8247 C.ar    1  UNL1        0.1374
     23 N         144.1879  143.0094  161.4692 N.ar    1  UNL1       -0.2206
     24 C         142.9379  143.8253  161.3212 C.ar    1  UNL1        0.1788
     25 N         142.5128  144.3068  159.9657 N.ar    1  UNL1       -0.2188
     26 C         141.2628  145.1226  159.8176 C.ar    1  UNL1        0.1612
     27 C         140.4379  145.4569  161.0251 C.ar    1  UNL1        0.2804
     28 O         139.1879  146.2728  160.8770 O.2     1  UNL1       -0.2653
     29 N         140.8631  144.9754  162.3805 N.ar    1  UNL1       -0.2900
     30 C         142.1131  144.1595  162.5286 C.ar    1  UNL1        0.1016
     31 C         142.5383  143.6779  163.8841 C.ar    1  UNL1        0.0589
     32 C         143.2084  141.7606  166.3126 C.3     1  UNL1        0.2525
     33 O         144.2134  142.3806  165.3876 O.3     1  UNL1       -0.4698
@<TRIPOS>BOND
     1    32    33    1
     2    33    21    1
     3    21    22   ar
     4    22    23   ar
     5    23    24   ar
     6    24    25   ar
     7    25    26   ar
     8    26    27   ar
     9    27    28    2
    10    27    29   ar
    11    29    20    1
    12    20    19    1
    13    19     1    1
    14     1     2    1
    15     2     3    1
    16     3     4    1
    17     4     7    1
    18     7     9    1
    19     9    10    1
    20    10    11   ar
    21    11    12   ar
    22    12    13   ar
    23    13    14    1
    24    13    15   ar
    25    15    17    1
    26    17    18    3
    27    15    16   ar
    28     4     5    1
    29     5     6    1
    30    29    30   ar
    31    30    31   ar
    32    31    21   ar
    33    30    24   ar
    34     6     1    1
    35    16    10   ar
    36     7     8    1
@<TRIPOS>MOLECULE
*****
 33 36 0 0 0
SMALL
GASTEIGER

@<TRIPOS>ATOM
      1 N         142.6941  144.2871  163.5091 N.3     1  UNL1       -0.2710
      2 C         141.4413  144.6488  164.2506 C.3     1  UNL1        0.0735
      3 C         140.1012  144.4073  163.6214 C.3     1  UNL1        0.0331
      4 C         140.0139  143.8042  162.2508 C.3     1  UNL1        0.0570
      5 C         141.2667  143.4426  161.5093 C.3     1  UNL1        0.0331
      6 C         142.6068  143.6841  162.1385 C.3     1  UNL1        0.0735
      7 N         138.6738  143.5627  161.6216 N.3     1  UNL1       -0.2947
      8 H         138.8474  143.2950  160.6528 H       1  UNL1        0.1235
      9 C         137.7500  142.5307  162.1972 C.3     1  UNL1        0.0972
     10 C         138.3053  141.2503  162.7471 C.ar    1  UNL1        0.0135
     11 C         139.2347  140.4174  161.9151 C.ar    1  UNL1        0.0955
     12 N         139.7900  139.1370  162.4650 N.ar    1  UNL1       -0.2477
     13 C         139.4158  138.6896  163.8470 C.ar    1  UNL1        0.0689
     14 C         139.9711  137.4093  164.3969 C.3     1  UNL1        0.0528
     15 C         138.4864  139.5226  164.6790 C.ar    1  UNL1        0.0817
     16 C         137.9311  140.8030  164.1291 C.ar    1  UNL1        0.0101
     17 C         138.1122  139.0753  166.0610 C.1     1  UNL1        0.1016
     18 N         137.7380  138.6279  167.4430 N.1     1  UNL1       -0.1908
     19 C         144.0342  144.5286  164.1383 C.3     1  UNL1        0.0970
     20 C         144.5742  143.5596  165.1479 C.3     1  UNL1        0.1265
     21 C         141.3644  141.8317  167.7863 C.ar    1  UNL1        0.1594
     22 C         141.0168  140.3758  167.6891 C.ar    1  UNL1        0.1374
     23 N         141.7392  139.4958  166.7124 N.ar    1  UNL1       -0.2206
     24 C         142.8091  140.0717  165.8329 C.ar    1  UNL1        0.1788
     25 N         143.5315  139.1918  164.8563 N.ar    1  UNL1       -0.2188
     26 C         144.6014  139.7677  163.9768 C.ar    1  UNL1        0.1612
     27 C         144.9490  141.2237  164.0740 C.ar    1  UNL1        0.2804
     28 O         146.0190  141.7996  163.1946 O.2     1  UNL1       -0.2653
     29 N         144.2267  142.1037  165.0507 N.ar    1  UNL1       -0.2900
     30 C         143.1567  141.5276  165.9302 C.ar    1  UNL1        0.1016
     31 C         142.4343  142.4076  166.9068 C.ar    1  UNL1        0.0589
     32 C         140.2471  142.1745  170.1066 C.3     1  UNL1        0.2525
     33 O         140.6420  142.7116  168.7629 O.3     1  UNL1       -0.4698
@<TRIPOS>BOND
     1    32    33    1
     2    33    21    1
     3    21    22   ar
     4    22    23   ar
     5    23    24   ar
     6    24    25   ar
     7    25    26   ar
     8    26    27   ar
     9    27    28    2
    10    27    29   ar
    11    29    20    1
    12    20    19    1
    13    19     1    1
    14     1     2    1
    15     2     3    1
    16     3     4    1
    17     4     7    1
    18     7     9    1
    19     9    10    1
    20    10    11   ar
    21    11    12   ar
    22    12    13   ar
    23    13    14    1
    24    13    15   ar
    25    15    17    1
    26    17    18    3
    27    15    16   ar
    28     4     5    1
    29     5     6    1
    30    29    30   ar
    31    30    31   ar
    32    31    21   ar
    33    30    24   ar
    34     6     1    1
    35    16    10   ar
    36     7     8    1
