@<TRIPOS>MOLECULE
*****
 30 35 0 0 0
SMALL
GASTEIGER

@<TRIPOS>ATOM
      1 C         140.8011  141.2727  167.1922 C.ar    1  UNL1        0.0014
      2 C         141.1485  139.8200  167.0540 C.ar    1  UNL1        0.0031
      3 C         140.6070  139.0257  165.9026 C.ar    1  UNL1        0.0366
      4 C         139.7180  139.6839  164.8895 C.ar    1  UNL1        0.1360
      5 C         139.3706  141.1365  165.0277 C.ar    1  UNL1        0.0357
      6 C         139.9122  141.9310  166.1791 C.ar    1  UNL1        0.0007
      7 C         138.4816  141.7948  164.0146 C.3     1  UNL1        0.1580
      8 C         137.6092  142.5851  163.0849 C.3     1  UNL1        0.2351
      9 O         137.5340  143.9910  163.6025 O.2     1  UNL1       -0.4478
     10 C         138.3599  144.0696  164.8522 C.2     1  UNL1        0.2770
     11 N         138.5643  145.2909  165.6985 N.pl3   1  UNL1       -0.3133
     12 N         138.9456  142.7123  165.1069 N.2     1  UNL1       -0.2202
     13 C         137.9400  141.0004  162.8633 C.3     1  UNL1        0.1141
     14 C         138.1880  140.8168  163.1460 C.3     1  UNL1        0.1501
     15 O         137.9273  141.0098  162.8488 O.3     1  UNL1       -0.3532
     16 C         138.1880  140.8168  163.1460 C.3     1  UNL1        0.1501
     17 C         138.2874  139.5478  162.7251 C.3     1  UNL1        0.1395
     18 C         137.3997  139.8478  161.5537 C.3     1  UNL1        0.0404
     19 C         137.5214  138.4243  161.0968 C.3     1  UNL1        0.0072
     20 C         138.4092  138.1243  162.2681 C.3     1  UNL1        0.0404
     21 O         139.1764  138.8895  163.7382 O.3     1  UNL1       -0.4826
     22 H         138.1355  146.1410  165.4478 H       1  UNL1        0.1466
     23 H         139.1273  145.2426  166.5047 H       1  UNL1        0.1466
     24 C         144.8011  142.7115  170.1805 C.3     1  UNL1        0.0327
     25 C         143.3427  142.7865  169.8377 C.ar    1  UNL1       -0.0027
     26 C         142.4260  143.6559  170.6463 C.ar    1  UNL1        0.0946
     27 N         140.9676  143.7309  170.3035 N.ar    1  UNL1       -0.2426
     28 C         140.4260  142.9365  169.1521 C.ar    1  UNL1        0.0988
     29 C         141.3427  142.0671  168.3436 C.ar    1  UNL1        0.0189
     30 C         142.8012  141.9921  168.6864 C.ar    1  UNL1       -0.0012
@<TRIPOS>BOND
     1    24    25    1
     2    25    26   ar
     3    26    27   ar
     4    27    28   ar
     5    28    29   ar
     6    29     1    1
     7     1     2   ar
     8     2     3   ar
     9     3     4   ar
    10     4     5   ar
    11     5     6   ar
    12     5     7    1
    13     7     8    1
    14     8     9    1
    15     9    10    1
    16    10    11    1
    17    10    12    2
    18     7    13    1
    19    13    14    1
    20    14    15    1
    21    15    16    1
    22    13    17    1
    23    17    18    1
    24    18    19    1
    25    19    20    1
    26    17    21    1
    27    29    30   ar
    28    30    25   ar
    29     6     1   ar
    30    12     7    1
    31    16    13    1
    32    20    17    1
    33    21     4    1
    34    11    22    1
    35    11    23    1
@<TRIPOS>MOLECULE
*****
 30 35 0 0 0
SMALL
GASTEIGER

@<TRIPOS>ATOM
      1 C         139.5896  140.4215  166.3656 C.ar    1  UNL1        0.0014
      2 C         139.7867  139.0286  165.8448 C.ar    1  UNL1        0.0031
      3 C         139.5587  138.7318  164.3923 C.ar    1  UNL1        0.0366
      4 C         139.1336  139.8277  163.4605 C.ar    1  UNL1        0.1360
      5 C         138.9365  141.2205  163.9812 C.ar    1  UNL1        0.0357
      6 C         139.1645  141.5174  165.4338 C.ar    1  UNL1        0.0007
      7 C         138.5113  142.3164  163.0495 C.3     1  UNL1        0.1580
      8 C         138.0904  143.5083  162.2419 C.3     1  UNL1        0.2351
      9 O         138.0194  144.6905  163.1626 O.2     1  UNL1       -0.4478
     10 C         138.3965  144.2292  164.5391 C.2     1  UNL1        0.2770
     11 N         138.4587  145.0848  165.7695 N.pl3   1  UNL1       -0.3133
     12 N         138.7005  142.7619  164.4693 N.2     1  UNL1       -0.2202
     13 C         138.2833  142.0195  161.5969 C.3     1  UNL1        0.1141
     14 C         138.4019  141.7138  161.8569 C.3     1  UNL1        0.1501
     15 O         138.2773  142.0352  161.5836 O.3     1  UNL1       -0.3532
     16 C         138.4019  141.7138  161.8569 C.3     1  UNL1        0.1501
     17 C         138.4805  140.6267  161.0762 C.3     1  UNL1        0.1395
     18 C         138.0652  141.4328  159.8813 C.3     1  UNL1        0.0404
     19 C         138.1580  140.2068  159.0219 C.3     1  UNL1        0.0072
     20 C         138.5733  139.4008  160.2169 C.3     1  UNL1        0.0404
     21 O         138.9056  139.5308  162.0080 O.3     1  UNL1       -0.4826
     22 H         138.2398  146.0431  165.7143 H       1  UNL1        0.1466
     23 H         138.7183  144.6881  166.6323 H       1  UNL1        0.1466
     24 C         141.8945  143.2365  170.0754 C.3     1  UNL1        0.0327
     25 C         140.9701  142.1259  169.6730 C.ar    1  UNL1       -0.0027
     26 C         140.2736  141.3122  170.7232 C.ar    1  UNL1        0.0946
     27 N         139.3492  140.2016  170.3208 N.ar    1  UNL1       -0.2426
     28 C         139.1212  139.9046  168.8683 C.ar    1  UNL1        0.0988
     29 C         139.8176  140.7184  167.8181 C.ar    1  UNL1        0.0189
     30 C         140.7421  141.8290  168.2205 C.ar    1  UNL1       -0.0012
@<TRIPOS>BOND
     1    24    25    1
     2    25    26   ar
     3    26    27   ar
     4    27    28   ar
     5    28    29   ar
     6    29     1    1
     7     1     2   ar
     8     2     3   ar
     9     3     4   ar
    10     4     5   ar
    11     5     6   ar
    12     5     7    1
    13     7     8    1
    14     8     9    1
    15     9    10    1
    16    10    11    1
    17    10    12    2
    18     7    13    1
    19    13    14    1
    20    14    15    1
    21    15    16    1
    22    13    17    1
    23    17    18    1
    24    18    19    1
    25    19    20    1
    26    17    21    1
    27    29    30   ar
    28    30    25   ar
    29     6     1   ar
    30    12     7    1
    31    16    13    1
    32    20    17    1
    33    21     4    1
    34    11    22    1
    35    11    23    1
@<TRIPOS>MOLECULE
*****
 30 35 0 0 0
SMALL
GASTEIGER

@<TRIPOS>ATOM
      1 C         141.6655  140.9554  167.1469 C.ar    1  UNL1        0.0014
      2 C         142.9927  141.4873  166.6933 C.ar    1  UNL1        0.0031
      3 C         143.5792  141.0285  165.3912 C.ar    1  UNL1        0.0366
      4 C         142.8386  140.0379  164.5427 C.ar    1  UNL1        0.1360
      5 C         141.5114  139.5059  164.9962 C.ar    1  UNL1        0.0357
      6 C         140.9249  139.9647  166.2984 C.ar    1  UNL1        0.0007
      7 C         140.7708  138.5153  164.1477 C.3     1  UNL1        0.1580
      8 C         139.9187  137.5256  163.4098 C.3     1  UNL1        0.2351
      9 O         138.6840  137.2783  164.2249 O.2     1  UNL1       -0.4478
     10 C         138.7729  138.1151  165.4666 C.2     1  UNL1        0.2770
     11 N         137.7516  138.1766  166.5633 N.pl3   1  UNL1       -0.3133
     12 N         140.0627  138.8796  165.4189 N.2     1  UNL1       -0.2202
     13 C         141.3573  138.0565  162.8456 C.3     1  UNL1        0.1141
     14 C         141.5639  138.3329  163.0823 C.3     1  UNL1        0.1501
     15 O         141.3467  138.0424  162.8335 O.3     1  UNL1       -0.3532
     16 C         141.5639  138.3329  163.0823 C.3     1  UNL1        0.1501
     17 C         142.6844  138.5884  162.3920 C.3     1  UNL1        0.1395
     18 C         142.2550  137.6424  161.3100 C.3     1  UNL1        0.0404
     19 C         143.5139  137.9396  160.5504 C.3     1  UNL1        0.0072
     20 C         143.9433  138.8856  161.6325 C.3     1  UNL1        0.0404
     21 O         143.4250  139.5791  163.2406 O.3     1  UNL1       -0.4826
     22 H         136.9321  137.6343  166.5038 H       1  UNL1        0.1466
     23 H         137.9008  138.7593  167.3427 H       1  UNL1        0.1466
     24 C         140.1235  144.8027  170.2806 C.3     1  UNL1        0.0327
     25 C         140.3080  143.3378  170.0159 C.ar    1  UNL1       -0.0027
     26 C         139.9060  142.3317  171.0533 C.ar    1  UNL1        0.0946
     27 N         140.0906  140.8669  170.7886 N.ar    1  UNL1       -0.2426
     28 C         140.6771  140.4080  169.4865 C.ar    1  UNL1        0.0988
     29 C         141.0790  141.4141  168.4490 C.ar    1  UNL1        0.0189
     30 C         140.8945  142.8791  168.7138 C.ar    1  UNL1       -0.0012
@<TRIPOS>BOND
     1    24    25    1
     2    25    26   ar
     3    26    27   ar
     4    27    28   ar
     5    28    29   ar
     6    29     1    1
     7     1     2   ar
     8     2     3   ar
     9     3     4   ar
    10     4     5   ar
    11     5     6   ar
    12     5     7    1
    13     7     8    1
    14     8     9    1
    15     9    10    1
    16    10    11    1
    17    10    12    2
    18     7    13    1
    19    13    14    1
    20    14    15    1
    21    15    16    1
    22    13    17    1
    23    17    18    1
    24    18    19    1
    25    19    20    1
    26    17    21    1
    27    29    30   ar
    28    30    25   ar
    29     6     1   ar
    30    12     7    1
    31    16    13    1
    32    20    17    1
    33    21     4    1
    34    11    22    1
    35    11    23    1
@<TRIPOS>MOLECULE
*****
 30 35 0 0 0
SMALL
GASTEIGER

@<TRIPOS>ATOM
      1 C         140.8065  143.4006  163.8008 C.ar    1  UNL1        0.0014
      2 C         139.9765  143.8974  164.9472 C.ar    1  UNL1        0.0031
      3 C         140.0630  143.2220  166.2838 C.ar    1  UNL1        0.0366
      4 C         140.9795  142.0499  166.4740 C.ar    1  UNL1        0.1360
      5 C         141.8096  141.5532  165.3276 C.ar    1  UNL1        0.0357
      6 C         141.7231  142.2285  163.9909 C.ar    1  UNL1        0.0007
      7 C         142.7261  140.3811  165.5177 C.3     1  UNL1        0.1580
      8 C         143.6825  139.2262  165.5570 C.3     1  UNL1        0.2351
      9 O         144.2930  139.0833  164.1943 O.2     1  UNL1       -0.4478
     10 C         143.7139  140.1499  163.3128 C.2     1  UNL1        0.2770
     11 N         144.0450  140.3750  161.8673 N.pl3   1  UNL1       -0.3133
     12 N         142.7455  140.9520  164.1307 N.2     1  UNL1       -0.2202
     13 C         142.8126  139.7058  166.8543 C.3     1  UNL1        0.1141
     14 C         142.5569  140.0328  166.8012 C.3     1  UNL1        0.1501
     15 O         142.8257  139.6890  166.8570 O.3     1  UNL1       -0.3532
     16 C         142.5569  140.0328  166.8012 C.3     1  UNL1        0.1501
     17 C         141.9826  140.2025  168.0007 C.3     1  UNL1        0.1395
     18 C         142.7568  139.0437  168.5555 C.3     1  UNL1        0.0404
     19 C         142.1049  139.2474  169.8910 C.3     1  UNL1        0.0072
     20 C         141.3307  140.4063  169.3362 C.3     1  UNL1        0.0404
     21 O         141.0660  141.3746  167.8105 O.3     1  UNL1       -0.4826
     22 H         144.6973  139.7924  161.4152 H       1  UNL1        0.1466
     23 H         143.6101  141.1053  161.3706 H       1  UNL1        0.1466
     24 C         142.3655  143.8205  158.8619 C.3     1  UNL1        0.0327
     25 C         141.4996  144.2859  159.9947 C.ar    1  UNL1       -0.0027
     26 C         140.5471  145.4266  159.7910 C.ar    1  UNL1        0.0946
     27 N         139.6811  145.8920  160.9239 N.ar    1  UNL1       -0.2426
     28 C         139.7675  145.2167  162.2605 C.ar    1  UNL1        0.0988
     29 C         140.7200  144.0759  162.4642 C.ar    1  UNL1        0.0189
     30 C         141.5861  143.6105  161.3313 C.ar    1  UNL1       -0.0012
@<TRIPOS>BOND
     1    24    25    1
     2    25    26   ar
     3    26    27   ar
     4    27    28   ar
     5    28    29   ar
     6    29     1    1
     7     1     2   ar
     8     2     3   ar
     9     3     4   ar
    10     4     5   ar
    11     5     6   ar
    12     5     7    1
    13     7     8    1
    14     8     9    1
    15     9    10    1
    16    10    11    1
    17    10    12    2
    18     7    13    1
    19    13    14    1
    20    14    15    1
    21    15    16    1
    22    13    17    1
    23    17    18    1
    24    18    19    1
    25    19    20    1
    26    17    21    1
    27    29    30   ar
    28    30    25   ar
    29     6     1   ar
    30    12     7    1
    31    16    13    1
    32    20    17    1
    33    21     4    1
    34    11    22    1
    35    11    23    1
@<TRIPOS>MOLECULE
*****
 30 35 0 0 0
SMALL
GASTEIGER

@<TRIPOS>ATOM
      1 C         141.1479  140.2849  166.8040 C.ar    1  UNL1        0.0014
      2 C         142.4726  139.5848  166.8750 C.ar    1  UNL1        0.0031
      3 C         143.0707  138.9840  165.6376 C.ar    1  UNL1        0.0366
      4 C         142.3441  139.0833  164.3291 C.ar    1  UNL1        0.1360
      5 C         141.0195  139.7833  164.2580 C.ar    1  UNL1        0.0357
      6 C         140.4213  140.3842  165.4954 C.ar    1  UNL1        0.0007
      7 C         140.2929  139.8826  162.9494 C.3     1  UNL1        0.1580
      8 C         139.4542  140.0599  161.7185 C.3     1  UNL1        0.2351
      9 O         138.2172  140.8152  162.1051 O.2     1  UNL1       -0.4478
     10 C         138.2914  141.1048  163.5750 C.2     1  UNL1        0.2770
     11 N         137.2634  141.8414  164.3814 N.pl3   1  UNL1       -0.3133
     12 N         139.5742  140.5284  164.0969 N.2     1  UNL1       -0.2202
     13 C         140.8910  139.2818  161.7120 C.3     1  UNL1        0.1141
     14 C         141.0937  139.2541  162.0771 C.3     1  UNL1        0.1501
     15 O         140.8806  139.2832  161.6933 O.3     1  UNL1       -0.3532
     16 C         141.0937  139.2541  162.0771 C.3     1  UNL1        0.1501
     17 C         142.2156  138.5817  161.7831 C.3     1  UNL1        0.1395
     18 C         141.8012  138.4832  160.3448 C.3     1  UNL1        0.0404
     19 C         143.0615  137.7320  160.0330 C.3     1  UNL1        0.0072
     20 C         143.4760  137.8305  161.4713 C.3     1  UNL1        0.0404
     21 O         142.9422  138.4824  163.0916 O.3     1  UNL1       -0.4826
     22 H         136.4493  142.1839  163.9464 H       1  UNL1        0.1466
     23 H         137.4027  141.9824  165.3458 H       1  UNL1        0.1466
     24 C         140.5500  144.3358  170.0028 C.3     1  UNL1        0.0327
     25 C         140.2509  142.9112  169.6408 C.ar    1  UNL1       -0.0027
     26 C         139.3537  142.0875  170.5163 C.ar    1  UNL1        0.0946
     27 N         139.0545  140.6629  170.1543 N.ar    1  UNL1       -0.2426
     28 C         139.6526  140.0620  168.9168 C.ar    1  UNL1        0.0988
     29 C         140.5498  140.8858  168.0414 C.ar    1  UNL1        0.0189
     30 C         140.8489  142.3104  168.4034 C.ar    1  UNL1       -0.0012
@<TRIPOS>BOND
     1    24    25    1
     2    25    26   ar
     3    26    27   ar
     4    27    28   ar
     5    28    29   ar
     6    29     1    1
     7     1     2   ar
     8     2     3   ar
     9     3     4   ar
    10     4     5   ar
    11     5     6   ar
    12     5     7    1
    13     7     8    1
    14     8     9    1
    15     9    10    1
    16    10    11    1
    17    10    12    2
    18     7    13    1
    19    13    14    1
    20    14    15    1
    21    15    16    1
    22    13    17    1
    23    17    18    1
    24    18    19    1
    25    19    20    1
    26    17    21    1
    27    29    30   ar
    28    30    25   ar
    29     6     1   ar
    30    12     7    1
    31    16    13    1
    32    20    17    1
    33    21     4    1
    34    11    22    1
    35    11    23    1
@<TRIPOS>MOLECULE
*****
 30 35 0 0 0
SMALL
GASTEIGER

@<TRIPOS>ATOM
      1 C         139.9554  140.4189  167.1801 C.ar    1  UNL1        0.0014
      2 C         138.7486  139.5332  167.0840 C.ar    1  UNL1        0.0031
      3 C         138.1375  139.2407  165.7458 C.ar    1  UNL1        0.0366
      4 C         138.7332  139.8340  164.5035 C.ar    1  UNL1        0.1360
      5 C         139.9399  140.7197  164.5995 C.ar    1  UNL1        0.0357
      6 C         140.5511  141.0122  165.9378 C.ar    1  UNL1        0.0007
      7 C         140.5356  141.3130  163.3572 C.3     1  UNL1        0.1580
      8 C         141.2377  141.9741  162.2083 C.3     1  UNL1        0.2351
      9 O         142.3882  142.7629  162.7601 O.2     1  UNL1       -0.4478
     10 C         142.3971  142.5892  164.2499 C.2     1  UNL1        0.2770
     11 N         143.3786  143.2036  165.2033 N.pl3   1  UNL1       -0.3133
     12 N         141.2522  141.6931  164.6191 N.2     1  UNL1       -0.2202
     13 C         139.9245  141.0206  162.0190 C.3     1  UNL1        0.1141
     14 C         139.7583  140.8550  162.3656 C.3     1  UNL1        0.1501
     15 O         139.9330  141.0290  162.0013 O.3     1  UNL1       -0.3532
     16 C         139.7583  140.8550  162.3656 C.3     1  UNL1        0.1501
     17 C         138.7178  140.1349  161.9230 C.3     1  UNL1        0.1395
     18 C         139.0214  140.5318  160.5087 C.3     1  UNL1        0.0404
     19 C         137.8535  139.7212  160.0303 C.3     1  UNL1        0.0072
     20 C         137.5498  139.3243  161.4446 C.3     1  UNL1        0.0404
     21 O         138.1221  139.5416  163.1652 O.3     1  UNL1       -0.4826
     22 H         144.0998  143.7811  164.8632 H       1  UNL1        0.1466
     23 H         143.3016  143.0295  166.1692 H       1  UNL1        0.1466
     24 C         143.8640  142.3289  170.0216 C.3     1  UNL1        0.0327
     25 C         142.5208  141.6664  169.9392 C.ar    1  UNL1       -0.0027
     26 C         141.7887  141.2963  171.1950 C.ar    1  UNL1        0.0946
     27 N         140.4455  140.6337  171.1125 N.ar    1  UNL1       -0.2426
     28 C         139.8344  140.3412  169.7742 C.ar    1  UNL1        0.0988
     29 C         140.5665  140.7114  168.5184 C.ar    1  UNL1        0.0189
     30 C         141.9097  141.3739  168.6009 C.ar    1  UNL1       -0.0012
@<TRIPOS>BOND
     1    24    25    1
     2    25    26   ar
     3    26    27   ar
     4    27    28   ar
     5    28    29   ar
     6    29     1    1
     7     1     2   ar
     8     2     3   ar
     9     3     4   ar
    10     4     5   ar
    11     5     6   ar
    12     5     7    1
    13     7     8    1
    14     8     9    1
    15     9    10    1
    16    10    11    1
    17    10    12    2
    18     7    13    1
    19    13    14    1
    20    14    15    1
    21    15    16    1
    22    13    17    1
    23    17    18    1
    24    18    19    1
    25    19    20    1
    26    17    21    1
    27    29    30   ar
    28    30    25   ar
    29     6     1   ar
    30    12     7    1
    31    16    13    1
    32    20    17    1
    33    21     4    1
    34    11    22    1
    35    11    23    1
@<TRIPOS>MOLECULE
*****
 30 35 0 0 0
SMALL
GASTEIGER

@<TRIPOS>ATOM
      1 C         142.7582  140.4751  164.1778 C.ar    1  UNL1        0.0014
      2 C         143.6476  141.5191  164.7855 C.ar    1  UNL1        0.0031
      3 C         143.3226  142.0882  166.1347 C.ar    1  UNL1        0.0366
      4 C         142.1084  141.6133  166.8764 C.ar    1  UNL1        0.1360
      5 C         141.2191  140.5693  166.2689 C.ar    1  UNL1        0.0357
      6 C         141.5440  140.0001  164.9195 C.ar    1  UNL1        0.0007
      7 C         140.0049  140.0944  167.0106 C.3     1  UNL1        0.1580
      8 C         138.7632  139.5247  167.6301 C.3     1  UNL1        0.2351
      9 O         138.1920  138.5149  166.6792 O.2     1  UNL1       -0.4478
     10 C         139.0806  138.4605  165.4719 C.2     1  UNL1        0.2770
     11 N         138.8834  137.5840  164.2709 N.pl3   1  UNL1       -0.3133
     12 N         140.2010  139.4367  165.6767 N.2     1  UNL1       -0.2202
     13 C         139.6800  140.6634  168.3598 C.3     1  UNL1        0.1141
     14 C         140.0187  140.7959  168.1529 C.3     1  UNL1        0.1501
     15 O         139.6626  140.6566  168.3704 O.3     1  UNL1       -0.3532
     16 C         140.0187  140.7959  168.1529 C.3     1  UNL1        0.1501
     17 C         140.5693  141.7074  168.9674 C.3     1  UNL1        0.1395
     18 C         139.4808  141.4898  169.9763 C.3     1  UNL1        0.0404
     19 C         140.1098  142.5123  170.8756 C.3     1  UNL1        0.0072
     20 C         141.1983  142.7299  169.8667 C.3     1  UNL1        0.0404
     21 O         141.7835  142.1823  168.2257 O.3     1  UNL1       -0.4826
     22 H         138.1130  136.9725  164.2288 H       1  UNL1        0.1466
     23 H         139.5245  137.6201  163.5245 H       1  UNL1        0.1466
     24 C         143.7037  141.1591  159.1145 C.3     1  UNL1        0.0327
     25 C         143.5559  140.2480  160.2969 C.ar    1  UNL1       -0.0027
     26 C         143.7330  138.7679  160.1300 C.ar    1  UNL1        0.0946
     27 N         143.5852  137.8568  161.3123 N.ar    1  UNL1       -0.2426
     28 C         143.2602  138.4259  162.6617 C.ar    1  UNL1        0.0988
     29 C         143.0831  139.9060  162.8286 C.ar    1  UNL1        0.0189
     30 C         143.2310  140.8171  161.6461 C.ar    1  UNL1       -0.0012
@<TRIPOS>BOND
     1    24    25    1
     2    25    26   ar
     3    26    27   ar
     4    27    28   ar
     5    28    29   ar
     6    29     1    1
     7     1     2   ar
     8     2     3   ar
     9     3     4   ar
    10     4     5   ar
    11     5     6   ar
    12     5     7    1
    13     7     8    1
    14     8     9    1
    15     9    10    1
    16    10    11    1
    17    10    12    2
    18     7    13    1
    19    13    14    1
    20    14    15    1
    21    15    16    1
    22    13    17    1
    23    17    18    1
    24    18    19    1
    25    19    20    1
    26    17    21    1
    27    29    30   ar
    28    30    25   ar
    29     6     1   ar
    30    12     7    1
    31    16    13    1
    32    20    17    1
    33    21     4    1
    34    11    22    1
    35    11    23    1
@<TRIPOS>MOLECULE
*****
 30 35 0 0 0
SMALL
GASTEIGER

@<TRIPOS>ATOM
      1 C         138.6234  141.3465  159.4649 C.ar    1  UNL1        0.0014
      2 C         138.8870  139.8887  159.2292 C.ar    1  UNL1        0.0031
      3 C         138.9188  138.9355  160.3868 C.ar    1  UNL1        0.0366
      4 C         138.6871  139.4400  161.7803 C.ar    1  UNL1        0.1360
      5 C         138.4235  140.8977  162.0161 C.ar    1  UNL1        0.0357
      6 C         138.3917  141.8510  160.8584 C.ar    1  UNL1        0.0007
      7 C         138.1918  141.4021  163.4096 C.3     1  UNL1        0.1580
      8 C         137.9436  142.0493  164.7399 C.3     1  UNL1        0.2351
      9 O         137.7285  143.5158  164.5090 O.2     1  UNL1       -0.4478
     10 C         137.8439  143.7750  163.0361 C.2     1  UNL1        0.2770
     11 N         137.6985  145.1065  162.3611 N.pl3   1  UNL1       -0.3133
     12 N         138.1302  142.4686  162.3566 N.2     1  UNL1       -0.2202
     13 C         138.2237  140.4489  164.5673 C.3     1  UNL1        0.1141
     14 C         138.2884  140.3081  164.1786 C.3     1  UNL1        0.1501
     15 O         138.2204  140.4561  164.5872 O.3     1  UNL1       -0.3532
     16 C         138.2884  140.3081  164.1786 C.3     1  UNL1        0.1501
     17 C         138.4873  138.9912  164.3315 C.3     1  UNL1        0.1395
     18 C         138.3077  139.1181  165.8153 C.3     1  UNL1        0.0404
     19 C         138.5324  137.6430  165.9688 C.3     1  UNL1        0.0072
     20 C         138.7121  137.5161  164.4850 C.3     1  UNL1        0.0404
     21 O         138.7190  138.4868  162.9380 O.3     1  UNL1       -0.4826
     22 H         137.5096  145.9114  162.8957 H       1  UNL1        0.1466
     23 H         137.7918  145.1756  161.3835 H       1  UNL1        0.1466
     24 C         136.4146  143.0112  155.0661 C.3     1  UNL1        0.0327
     25 C         137.4871  143.1321  156.1078 C.ar    1  UNL1       -0.0027
     26 C         138.5277  144.2062  155.9918 C.ar    1  UNL1        0.0946
     27 N         139.6001  144.3271  157.0334 N.ar    1  UNL1       -0.2426
     28 C         139.6321  143.3739  158.1912 C.ar    1  UNL1        0.0988
     29 C         138.5915  142.2997  158.3072 C.ar    1  UNL1        0.0189
     30 C         137.5190  142.1789  157.2655 C.ar    1  UNL1       -0.0012
@<TRIPOS>BOND
     1    24    25    1
     2    25    26   ar
     3    26    27   ar
     4    27    28   ar
     5    28    29   ar
     6    29     1    1
     7     1     2   ar
     8     2     3   ar
     9     3     4   ar
    10     4     5   ar
    11     5     6   ar
    12     5     7    1
    13     7     8    1
    14     8     9    1
    15     9    10    1
    16    10    11    1
    17    10    12    2
    18     7    13    1
    19    13    14    1
    20    14    15    1
    21    15    16    1
    22    13    17    1
    23    17    18    1
    24    18    19    1
    25    19    20    1
    26    17    21    1
    27    29    30   ar
    28    30    25   ar
    29     6     1   ar
    30    12     7    1
    31    16    13    1
    32    20    17    1
    33    21     4    1
    34    11    22    1
    35    11    23    1
@<TRIPOS>MOLECULE
*****
 30 35 0 0 0
SMALL
GASTEIGER

@<TRIPOS>ATOM
      1 C         142.0687  142.6707  165.1363 C.ar    1  UNL1        0.0014
      2 C         143.2668  143.4225  164.6367 C.ar    1  UNL1        0.0031
      3 C         143.2577  144.0191  163.2606 C.ar    1  UNL1        0.0366
      4 C         142.0505  143.8640  162.3839 C.ar    1  UNL1        0.1360
      5 C         140.8524  143.1122  162.8833 C.ar    1  UNL1        0.0357
      6 C         140.8615  142.5155  164.2595 C.ar    1  UNL1        0.0007
      7 C         139.6453  142.9571  162.0066 C.3     1  UNL1        0.1580
      8 C         138.3729  142.7214  161.2478 C.3     1  UNL1        0.2351
      9 O         137.4504  141.9276  162.1249 O.2     1  UNL1       -0.4478
     10 C         138.1526  141.6727  163.4256 C.2     1  UNL1        0.2770
     11 N         137.5962  140.9147  164.5941 N.pl3   1  UNL1       -0.3133
     12 N         139.5091  142.3089  163.3525 N.2     1  UNL1       -0.2202
     13 C         139.6361  143.5537  160.6304 C.3     1  UNL1        0.1141
     14 C         139.9729  143.5970  160.8750 C.3     1  UNL1        0.1501
     15 O         139.6189  143.5515  160.6179 O.3     1  UNL1       -0.3532
     16 C         139.9729  143.5970  160.8750 C.3     1  UNL1        0.1501
     17 C         140.8341  144.3055  160.1310 C.3     1  UNL1        0.1395
     18 C         139.8458  144.3572  159.0038 C.3     1  UNL1        0.0404
     19 C         140.8212  145.1493  158.1846 C.3     1  UNL1        0.0072
     20 C         141.8096  145.0976  159.3118 C.3     1  UNL1        0.0404
     21 O         142.0413  144.4606  161.0077 O.3     1  UNL1       -0.4826
     22 H         136.6904  140.5320  164.5464 H       1  UNL1        0.1466
     23 H         138.1368  140.7999  165.4089 H       1  UNL1        0.1466
     24 C         144.0899  142.4139  169.9162 C.3     1  UNL1        0.0327
     25 C         143.0885  141.9457  168.9025 C.ar    1  UNL1       -0.0027
     26 C         142.0962  140.8807  169.2649 C.ar    1  UNL1        0.0946
     27 N         141.0948  140.4125  168.2511 N.ar    1  UNL1       -0.2426
     28 C         141.0856  141.0091  166.8748 C.ar    1  UNL1        0.0988
     29 C         142.0779  142.0740  166.5124 C.ar    1  UNL1        0.0189
     30 C         143.0793  142.5423  167.5263 C.ar    1  UNL1       -0.0012
@<TRIPOS>BOND
     1    24    25    1
     2    25    26   ar
     3    26    27   ar
     4    27    28   ar
     5    28    29   ar
     6    29     1    1
     7     1     2   ar
     8     2     3   ar
     9     3     4   ar
    10     4     5   ar
    11     5     6   ar
    12     5     7    1
    13     7     8    1
    14     8     9    1
    15     9    10    1
    16    10    11    1
    17    10    12    2
    18     7    13    1
    19    13    14    1
    20    14    15    1
    21    15    16    1
    22    13    17    1
    23    17    18    1
    24    18    19    1
    25    19    20    1
    26    17    21    1
    27    29    30   ar
    28    30    25   ar
    29     6     1   ar
    30    12     7    1
    31    16    13    1
    32    20    17    1
    33    21     4    1
    34    11    22    1
    35    11    23    1
