@<TRIPOS>MOLECULE
*****
 45 51 0 0 0
SMALL
GASTEIGER

@<TRIPOS>ATOM
      1 C         142.6744  139.3902  158.8224 C.ar    1  UNL1        0.0358
      2 C         143.6201  140.4538  158.3485 C.ar    1  UNL1        0.0029
      3 C         143.9930  141.5858  159.2593 C.ar    1  UNL1        0.0016
      4 C         143.4203  141.6541  160.6440 C.ar    1  UNL1        0.0174
      5 C         142.4747  140.5906  161.1179 C.ar    1  UNL1        0.0653
      6 C         142.1017  139.4586  160.2071 C.ar    1  UNL1        0.0261
      7 N         141.9019  140.6590  162.5026 N.ar    1  UNL1       -0.2733
      8 C         140.6273  141.4097  162.7507 C.ar    1  UNL1        0.0829
      9 C         140.0545  141.4782  164.1353 C.ar    1  UNL1        0.0193
     10 C         140.7565  140.7959  165.2718 C.ar    1  UNL1        0.0080
     11 C         140.1838  140.8643  166.6566 C.ar    1  UNL1       -0.0039
     12 C         140.8857  140.1820  167.7931 C.ar    1  UNL1       -0.0203
     13 C         142.1604  139.4312  167.5449 C.ar    1  UNL1        0.0255
     14 C         142.7331  139.3628  166.1603 C.ar    1  UNL1        0.1444
     15 F         144.0078  138.6120  165.9122 F       1  UNL1       -0.2040
     16 C         142.0311  140.0451  165.0237 C.ar    1  UNL1        0.0839
     17 C         142.6039  139.9767  163.6391 C.ar    1  UNL1        0.2668
     18 O         143.8785  139.2259  163.3909 O.2     1  UNL1       -0.2665
     19 C         140.3130  140.2504  169.1778 C.3     1  UNL1        0.0224
     20 C         139.1394  140.4535  170.0896 C.3     1  UNL1        0.0047
     21 C         140.4947  140.1658  170.6643 C.3     1  UNL1        0.0047
     22 C         142.9696  136.1358  156.5703 C.ar    1  UNL1        0.2244
     23 N         141.5556  135.9942  156.0900 N.ar    1  UNL1       -0.1810
     24 C         140.5146  136.9847  156.5205 C.ar    1  UNL1        0.2174
     25 N         139.1006  136.8431  156.0403 N.pl3   1  UNL1       -0.3273
     26 N         140.8876  138.1167  157.4314 N.ar    1  UNL1       -0.1948
     27 C         142.3015  138.2582  157.9116 C.ar    1  UNL1        0.1678
     28 N         143.3425  137.2678  157.4811 N.ar    1  UNL1       -0.1943
     29 H         138.8558  136.1002  155.4425 H       1  UNL1        0.1452
     30 H         138.4174  137.4932  156.3229 H       1  UNL1        0.1452
     31 N         144.0106  135.1454  156.1398 N.pl3   1  UNL1       -0.2800
     32 H         144.8109  135.4518  155.6550 H       1  UNL1        0.1552
     33 N         143.0883  131.3806  156.3409 N.ar    1  UNL1       -0.2500
     34 C         142.9676  132.7260  155.6888 C.ar    1  UNL1        0.1112
     35 C         143.8324  133.6883  156.4478 C.ar    1  UNL1        0.0906
     36 C         144.4877  132.9375  157.5690 C.ar    1  UNL1        0.1363
     37 N         144.0278  131.5113  157.5029 N.ar    1  UNL1       -0.1664
     38 C         142.8982  128.7896  156.3660 C.3     1  UNL1        0.0263
     39 C         142.3919  130.1249  155.9070 C.3     1  UNL1        0.1053
     40 C         141.1892  130.2044  155.0143 C.3     1  UNL1        0.0225
     41 C         140.5709  130.5690  153.6972 C.3     1  UNL1        0.0020
     42 C         139.7242  129.9776  154.7850 C.3     1  UNL1        0.0020
     43 C         141.1561  138.3950  160.6810 C.3     1  UNL1        0.1651
     44 O         141.6532  137.2883  161.5631 O.3     1  UNL1       -0.3772
     45 H         142.2815  136.7386  161.0692 H       1  UNL1        0.2109
@<TRIPOS>BOND
     1    38    39    1
     2    39    40    1
     3    40    41    1
     4    41    42    1
     5    39    33    1
     6    33    34   ar
     7    34    35   ar
     8    35    31    1
     9    31    22    1
    10    22    23   ar
    11    23    24   ar
    12    24    25    1
    13    24    26   ar
    14    26    27   ar
    15    27     1    1
    16     1     2   ar
    17     2     3   ar
    18     3     4   ar
    19     4     5   ar
    20     5     7    1
    21     7     8   ar
    22     8     9   ar
    23     9    10   ar
    24    10    11   ar
    25    11    12   ar
    26    12    19    1
    27    19    20    1
    28    20    21    1
    29    12    13   ar
    30    13    14   ar
    31    14    15    1
    32    14    16   ar
    33    16    17   ar
    34    17    18    2
    35     5     6   ar
    36     6    43    1
    37    43    44    1
    38    27    28   ar
    39    35    36   ar
    40    36    37   ar
    41    42    40    1
    42    37    33   ar
    43    28    22   ar
    44     6     1   ar
    45    17     7   ar
    46    16    10   ar
    47    21    19    1
    48    31    32    1
    49    25    29    1
    50    25    30    1
    51    44    45    1
@<TRIPOS>MOLECULE
*****
 45 51 0 0 0
SMALL
GASTEIGER

@<TRIPOS>ATOM
      1 C         139.3578  143.3287  159.0974 C.ar    1  UNL1        0.0358
      2 C         139.9484  144.5774  158.5126 C.ar    1  UNL1        0.0029
      3 C         140.5620  145.6093  159.4120 C.ar    1  UNL1        0.0016
      4 C         140.5850  145.3924  160.8960 C.ar    1  UNL1        0.0174
      5 C         139.9944  144.1437  161.4807 C.ar    1  UNL1        0.0653
      6 C         139.3808  143.1119  160.5815 C.ar    1  UNL1        0.0261
      7 N         140.0175  143.9269  162.9649 N.ar    1  UNL1       -0.2733
      8 C         138.9467  144.5269  163.8272 C.ar    1  UNL1        0.0829
      9 C         138.9697  144.3101  165.3112 C.ar    1  UNL1        0.0193
     10 C         140.0634  143.4933  165.9329 C.ar    1  UNL1        0.0080
     11 C         140.0865  143.2765  167.4171 C.ar    1  UNL1       -0.0039
     12 C         141.1802  142.4597  168.0388 C.ar    1  UNL1       -0.0203
     13 C         142.2509  141.8597  167.1765 C.ar    1  UNL1        0.0255
     14 C         142.2279  142.0765  165.6925 C.ar    1  UNL1        0.1444
     15 F         143.2986  141.4764  164.8302 F       1  UNL1       -0.2040
     16 C         141.1341  142.8933  165.0706 C.ar    1  UNL1        0.0839
     17 C         141.1112  143.1101  163.5866 C.ar    1  UNL1        0.2668
     18 O         142.1819  142.5101  162.7243 O.2     1  UNL1       -0.2665
     19 C         141.2032  142.2429  169.5229 C.3     1  UNL1        0.0224
     20 C         141.9557  142.2153  170.8202 C.3     1  UNL1        0.0047
     21 C         140.4906  141.8948  170.7961 C.3     1  UNL1        0.0047
     22 C         138.7922  139.9295  157.1287 C.ar    1  UNL1        0.2244
     23 N         137.5170  140.2331  156.3995 N.ar    1  UNL1       -0.1810
     24 C         136.8554  141.5685  156.5695 C.ar    1  UNL1        0.2174
     25 N         135.5802  141.8721  155.8404 N.pl3   1  UNL1       -0.3273
     26 N         137.4691  142.6004  157.4689 N.ar    1  UNL1       -0.1948
     27 C         138.7442  142.2968  158.1981 C.ar    1  UNL1        0.1678
     28 N         139.4058  140.9614  158.0280 N.ar    1  UNL1       -0.1943
     29 H         135.1775  141.1949  155.2501 H       1  UNL1        0.1452
     30 H         135.1460  142.7486  155.9520 H       1  UNL1        0.1452
     31 N         139.4537  138.5941  156.9586 N.pl3   1  UNL1       -0.2800
     32 H         139.1133  137.9578  156.2890 H       1  UNL1        0.1552
     33 N         142.0688  137.8626  159.7320 N.ar    1  UNL1       -0.2500
     34 C         140.7105  138.3328  159.3032 C.ar    1  UNL1        0.1112
     35 C         140.6340  138.2281  157.8089 C.ar    1  UNL1        0.0906
     36 C         141.9451  137.6931  157.3140 C.ar    1  UNL1        0.1363
     37 N         142.8319  137.4672  158.5026 N.ar    1  UNL1       -0.1664
     38 C         144.0467  137.8969  161.4163 C.3     1  UNL1        0.0263
     39 C         142.5751  137.7989  161.1425 C.3     1  UNL1        0.1053
     40 C         141.6100  137.6371  162.2793 C.3     1  UNL1        0.0225
     41 C         141.3477  137.3992  163.7369 C.3     1  UNL1        0.0020
     42 C         140.2004  137.5949  162.7906 C.3     1  UNL1        0.0020
     43 C         138.7903  141.8631  161.1662 C.3     1  UNL1        0.1651
     44 O         137.4667  141.9178  161.8701 O.3     1  UNL1       -0.3772
     45 H         137.5510  142.4505  162.6763 H       1  UNL1        0.2109
@<TRIPOS>BOND
     1    38    39    1
     2    39    40    1
     3    40    41    1
     4    41    42    1
     5    39    33    1
     6    33    34   ar
     7    34    35   ar
     8    35    31    1
     9    31    22    1
    10    22    23   ar
    11    23    24   ar
    12    24    25    1
    13    24    26   ar
    14    26    27   ar
    15    27     1    1
    16     1     2   ar
    17     2     3   ar
    18     3     4   ar
    19     4     5   ar
    20     5     7    1
    21     7     8   ar
    22     8     9   ar
    23     9    10   ar
    24    10    11   ar
    25    11    12   ar
    26    12    19    1
    27    19    20    1
    28    20    21    1
    29    12    13   ar
    30    13    14   ar
    31    14    15    1
    32    14    16   ar
    33    16    17   ar
    34    17    18    2
    35     5     6   ar
    36     6    43    1
    37    43    44    1
    38    27    28   ar
    39    35    36   ar
    40    36    37   ar
    41    42    40    1
    42    37    33   ar
    43    28    22   ar
    44     6     1   ar
    45    17     7   ar
    46    16    10   ar
    47    21    19    1
    48    31    32    1
    49    25    29    1
    50    25    30    1
    51    44    45    1
@<TRIPOS>MOLECULE
*****
 45 51 0 0 0
SMALL
GASTEIGER

@<TRIPOS>ATOM
      1 C         142.5250  142.4704  166.3872 C.ar    1  UNL1        0.0358
      2 C         143.9392  142.8477  166.7152 C.ar    1  UNL1        0.0029
      3 C         144.7202  143.7183  165.7760 C.ar    1  UNL1        0.0016
      4 C         144.0870  144.2117  164.5089 C.ar    1  UNL1        0.0174
      5 C         142.6728  143.8344  164.1809 C.ar    1  UNL1        0.0653
      6 C         141.8917  142.9638  165.1200 C.ar    1  UNL1        0.0261
      7 N         142.0395  144.3278  162.9137 N.ar    1  UNL1       -0.2733
      8 C         140.9741  145.3822  162.9688 C.ar    1  UNL1        0.0829
      9 C         140.3409  145.8756  161.7018 C.ar    1  UNL1        0.0193
     10 C         140.7731  145.3145  160.3795 C.ar    1  UNL1        0.0080
     11 C         140.1399  145.8079  159.1123 C.ar    1  UNL1       -0.0039
     12 C         140.5721  145.2468  157.7901 C.ar    1  UNL1       -0.0203
     13 C         141.6375  144.1924  157.7349 C.ar    1  UNL1        0.0255
     14 C         142.2707  143.6990  159.0020 C.ar    1  UNL1        0.1444
     15 F         143.3361  142.6445  158.9469 F       1  UNL1       -0.2040
     16 C         141.8385  144.2601  160.3244 C.ar    1  UNL1        0.0839
     17 C         142.4717  143.7667  161.5915 C.ar    1  UNL1        0.2668
     18 O         143.5371  142.7122  161.5363 O.2     1  UNL1       -0.2665
     19 C         139.9389  145.7402  156.5229 C.3     1  UNL1        0.0224
     20 C         139.8925  146.7236  155.3912 C.3     1  UNL1        0.0047
     21 C         138.8885  145.6114  155.4599 C.3     1  UNL1        0.0047
     22 C         139.8500  139.8705  167.7418 C.ar    1  UNL1        0.2244
     23 N         140.1819  139.8585  169.2046 N.ar    1  UNL1       -0.1810
     24 C         141.2948  140.7170  169.7282 C.ar    1  UNL1        0.2174
     25 N         141.6268  140.7050  171.1910 N.pl3   1  UNL1       -0.3273
     26 N         142.0759  141.5877  168.7890 N.ar    1  UNL1       -0.1948
     27 C         141.7439  141.5997  167.3263 C.ar    1  UNL1        0.1678
     28 N         140.6310  140.7411  166.8027 N.ar    1  UNL1       -0.1943
     29 H         141.1142  140.1336  171.8074 H       1  UNL1        0.1452
     30 H         142.3572  141.2685  171.5346 H       1  UNL1        0.1452
     31 N         138.7370  139.0119  167.2182 N.pl3   1  UNL1       -0.2800
     32 H         138.0984  138.5986  167.8431 H       1  UNL1        0.1552
     33 N         138.1982  139.1519  163.3769 N.ar    1  UNL1       -0.2500
     34 C         138.2178  139.8151  164.7222 C.ar    1  UNL1        0.1112
     35 C         138.5971  138.7830  165.7424 C.ar    1  UNL1        0.0906
     36 C         138.8120  137.4819  165.0277 C.ar    1  UNL1        0.1363
     37 N         138.5654  137.7098  163.5657 N.ar    1  UNL1       -0.1664
     38 C         137.3567  138.9963  160.9238 C.3     1  UNL1        0.0263
     39 C         137.8691  139.8143  162.0720 C.3     1  UNL1        0.1053
     40 C         138.0524  141.2948  161.9152 C.3     1  UNL1        0.0225
     41 C         137.7544  142.6952  162.3624 C.3     1  UNL1        0.0020
     42 C         138.6679  142.4586  161.1964 C.3     1  UNL1        0.0020
     43 C         140.4775  142.5865  164.7920 C.3     1  UNL1        0.1651
     44 O         139.3379  143.2791  165.4789 O.3     1  UNL1       -0.3772
     45 H         139.3492  143.0607  166.4239 H       1  UNL1        0.2109
@<TRIPOS>BOND
     1    38    39    1
     2    39    40    1
     3    40    41    1
     4    41    42    1
     5    39    33    1
     6    33    34   ar
     7    34    35   ar
     8    35    31    1
     9    31    22    1
    10    22    23   ar
    11    23    24   ar
    12    24    25    1
    13    24    26   ar
    14    26    27   ar
    15    27     1    1
    16     1     2   ar
    17     2     3   ar
    18     3     4   ar
    19     4     5   ar
    20     5     7    1
    21     7     8   ar
    22     8     9   ar
    23     9    10   ar
    24    10    11   ar
    25    11    12   ar
    26    12    19    1
    27    19    20    1
    28    20    21    1
    29    12    13   ar
    30    13    14   ar
    31    14    15    1
    32    14    16   ar
    33    16    17   ar
    34    17    18    2
    35     5     6   ar
    36     6    43    1
    37    43    44    1
    38    27    28   ar
    39    35    36   ar
    40    36    37   ar
    41    42    40    1
    42    37    33   ar
    43    28    22   ar
    44     6     1   ar
    45    17     7   ar
    46    16    10   ar
    47    21    19    1
    48    31    32    1
    49    25    29    1
    50    25    30    1
    51    44    45    1
@<TRIPOS>MOLECULE
*****
 45 51 0 0 0
SMALL
GASTEIGER

@<TRIPOS>ATOM
      1 C         141.6718  138.5926  158.5724 C.ar    1  UNL1        0.0358
      2 C         140.2458  138.7101  158.1224 C.ar    1  UNL1        0.0029
      3 C         139.1568  138.9288  159.1306 C.ar    1  UNL1        0.0016
      4 C         139.4939  139.0301  160.5887 C.ar    1  UNL1        0.0174
      5 C         140.9200  138.9127  161.0387 C.ar    1  UNL1        0.0653
      6 C         142.0089  138.6939  160.0306 C.ar    1  UNL1        0.0261
      7 N         141.2571  139.0140  162.4968 N.ar    1  UNL1       -0.2733
      8 C         141.3593  137.7716  163.3310 C.ar    1  UNL1        0.0829
      9 C         141.6964  137.8728  164.7891 C.ar    1  UNL1        0.0193
     10 C         141.9313  139.2165  165.4130 C.ar    1  UNL1        0.0080
     11 C         142.2684  139.3178  166.8712 C.ar    1  UNL1       -0.0039
     12 C         142.5032  140.6615  167.4951 C.ar    1  UNL1       -0.0203
     13 C         142.4010  141.9040  166.6608 C.ar    1  UNL1        0.0255
     14 C         142.0639  141.8027  165.2028 C.ar    1  UNL1        0.1444
     15 F         141.9617  143.0451  164.3686 F       1  UNL1       -0.2040
     16 C         141.8290  140.4590  164.5788 C.ar    1  UNL1        0.0839
     17 C         141.4920  140.3577  163.1207 C.ar    1  UNL1        0.2668
     18 O         141.3897  141.6001  162.2865 O.2     1  UNL1       -0.2665
     19 C         142.8403  140.7628  168.9532 C.3     1  UNL1        0.0224
     20 C         143.4873  141.4988  170.0889 C.3     1  UNL1        0.0047
     21 C         142.7772  140.2023  170.3431 C.3     1  UNL1        0.0047
     22 C         143.9177  136.8653  155.7936 C.ar    1  UNL1        0.2244
     23 N         144.9388  137.9364  155.5481 N.ar    1  UNL1       -0.1810
     24 C         144.8708  139.2263  156.3107 C.ar    1  UNL1        0.2174
     25 N         145.8918  140.2974  156.0653 N.pl3   1  UNL1       -0.3273
     26 N         143.7818  139.4450  157.3189 N.ar    1  UNL1       -0.1948
     27 C         142.7608  138.3739  157.5643 C.ar    1  UNL1        0.1678
     28 N         142.8288  137.0840  156.8017 N.ar    1  UNL1       -0.1943
     29 H         146.6065  140.1539  155.4037 H       1  UNL1        0.1452
     30 H         145.8471  141.1440  156.5659 H       1  UNL1        0.1452
     31 N         143.9857  135.5754  155.0309 N.pl3   1  UNL1       -0.2800
     32 H         144.3069  135.5702  154.1003 H       1  UNL1        0.1552
     33 N         142.7469  132.0333  156.0228 N.ar    1  UNL1       -0.2500
     34 C         143.0431  133.0746  154.9845 C.ar    1  UNL1        0.1112
     35 C         143.5644  134.2936  155.6861 C.ar    1  UNL1        0.0906
     36 C         143.5904  134.0057  157.1580 C.ar    1  UNL1        0.1363
     37 N         143.0851  132.6088  157.3661 N.ar    1  UNL1       -0.1664
     38 C         142.8646  129.4639  156.3892 C.3     1  UNL1        0.0263
     39 C         142.2072  130.6580  155.7633 C.3     1  UNL1        0.1053
     40 C         141.0100  130.4769  154.8779 C.3     1  UNL1        0.0225
     41 C         139.5214  130.4421  154.6971 C.3     1  UNL1        0.0020
     42 C         140.4251  130.1979  153.5251 C.3     1  UNL1        0.0020
     43 C         143.4350  138.5765  160.4806 C.3     1  UNL1        0.1651
     44 O         143.9241  137.2996  161.0974 O.3     1  UNL1       -0.3772
     45 H         143.4742  137.1568  161.9448 H       1  UNL1        0.2109
@<TRIPOS>BOND
     1    38    39    1
     2    39    40    1
     3    40    41    1
     4    41    42    1
     5    39    33    1
     6    33    34   ar
     7    34    35   ar
     8    35    31    1
     9    31    22    1
    10    22    23   ar
    11    23    24   ar
    12    24    25    1
    13    24    26   ar
    14    26    27   ar
    15    27     1    1
    16     1     2   ar
    17     2     3   ar
    18     3     4   ar
    19     4     5   ar
    20     5     7    1
    21     7     8   ar
    22     8     9   ar
    23     9    10   ar
    24    10    11   ar
    25    11    12   ar
    26    12    19    1
    27    19    20    1
    28    20    21    1
    29    12    13   ar
    30    13    14   ar
    31    14    15    1
    32    14    16   ar
    33    16    17   ar
    34    17    18    2
    35     5     6   ar
    36     6    43    1
    37    43    44    1
    38    27    28   ar
    39    35    36   ar
    40    36    37   ar
    41    42    40    1
    42    37    33   ar
    43    28    22   ar
    44     6     1   ar
    45    17     7   ar
    46    16    10   ar
    47    21    19    1
    48    31    32    1
    49    25    29    1
    50    25    30    1
    51    44    45    1
@<TRIPOS>MOLECULE
*****
 45 51 0 0 0
SMALL
GASTEIGER

@<TRIPOS>ATOM
      1 C         143.1438  139.8937  158.3848 C.ar    1  UNL1        0.0358
      2 C         143.9399  140.9208  157.6357 C.ar    1  UNL1        0.0029
      3 C         144.4554  142.1361  158.3481 C.ar    1  UNL1        0.0016
      4 C         144.1749  142.3241  159.8095 C.ar    1  UNL1        0.0174
      5 C         143.3788  141.2970  160.5587 C.ar    1  UNL1        0.0653
      6 C         142.8633  140.0818  159.8464 C.ar    1  UNL1        0.0261
      7 N         143.0983  141.4851  162.0202 N.ar    1  UNL1       -0.2733
      8 C         144.1636  141.1857  163.0329 C.ar    1  UNL1        0.0829
      9 C         143.8831  141.3738  164.4944 C.ar    1  UNL1        0.0193
     10 C         142.5374  141.8613  164.9431 C.ar    1  UNL1        0.0080
     11 C         142.2569  142.0494  166.4047 C.ar    1  UNL1       -0.0039
     12 C         140.9112  142.5368  166.8534 C.ar    1  UNL1       -0.0203
     13 C         139.8459  142.8361  165.8407 C.ar    1  UNL1        0.0255
     14 C         140.1264  142.6481  164.3792 C.ar    1  UNL1        0.1444
     15 F         139.0611  142.9474  163.3665 F       1  UNL1       -0.2040
     16 C         141.4722  142.1606  163.9304 C.ar    1  UNL1        0.0839
     17 C         141.7526  141.9725  162.4690 C.ar    1  UNL1        0.2668
     18 O         140.6873  142.2719  161.4562 O.2     1  UNL1       -0.2665
     19 C         140.6307  142.7249  168.3149 C.3     1  UNL1        0.0224
     20 C         140.4178  143.6317  169.4907 C.3     1  UNL1        0.0047
     21 C         140.3576  142.1438  169.6706 C.3     1  UNL1        0.0047
     22 C         143.0706  136.4168  156.4728 C.ar    1  UNL1        0.2244
     23 N         141.5971  136.2480  156.2479 N.ar    1  UNL1       -0.1810
     24 C         140.6393  137.2944  156.7353 C.ar    1  UNL1        0.2174
     25 N         139.1659  137.1256  156.5103 N.pl3   1  UNL1       -0.3273
     26 N         141.1549  138.5097  157.4476 N.ar    1  UNL1       -0.1948
     27 C         142.6283  138.6785  157.6725 C.ar    1  UNL1        0.1678
     28 N         143.5861  137.6320  157.1851 N.ar    1  UNL1       -0.1943
     29 H         138.8275  136.3280  156.0428 H       1  UNL1        0.1452
     30 H         138.5373  137.8125  156.8302 H       1  UNL1        0.1452
     31 N         144.0284  135.3704  155.9854 N.pl3   1  UNL1       -0.2800
     32 H         144.8119  135.6315  155.4495 H       1  UNL1        0.1552
     33 N         142.9995  131.6347  156.2104 N.ar    1  UNL1       -0.2500
     34 C         142.9581  132.9657  155.5200 C.ar    1  UNL1        0.1112
     35 C         143.7925  133.9261  156.3146 C.ar    1  UNL1        0.0906
     36 C         144.3496  133.1886  157.4960 C.ar    1  UNL1        0.1363
     37 N         143.8595  131.7724  157.4316 N.ar    1  UNL1       -0.1664
     38 C         142.8146  129.0432  156.1918 C.3     1  UNL1        0.0263
     39 C         142.3031  130.3852  155.7588 C.3     1  UNL1        0.1053
     40 C         141.0952  130.4777  154.8743 C.3     1  UNL1        0.0225
     41 C         140.4892  130.7270  153.5250 C.3     1  UNL1        0.0020
     42 C         139.6091  130.3885  154.6915 C.3     1  UNL1        0.0020
     43 C         142.0672  139.0546  160.5955 C.3     1  UNL1        0.1651
     44 O         140.5693  139.1329  160.6128 O.3     1  UNL1       -0.3772
     45 H         140.2927  139.9315  161.0888 H       1  UNL1        0.2109
@<TRIPOS>BOND
     1    38    39    1
     2    39    40    1
     3    40    41    1
     4    41    42    1
     5    39    33    1
     6    33    34   ar
     7    34    35   ar
     8    35    31    1
     9    31    22    1
    10    22    23   ar
    11    23    24   ar
    12    24    25    1
    13    24    26   ar
    14    26    27   ar
    15    27     1    1
    16     1     2   ar
    17     2     3   ar
    18     3     4   ar
    19     4     5   ar
    20     5     7    1
    21     7     8   ar
    22     8     9   ar
    23     9    10   ar
    24    10    11   ar
    25    11    12   ar
    26    12    19    1
    27    19    20    1
    28    20    21    1
    29    12    13   ar
    30    13    14   ar
    31    14    15    1
    32    14    16   ar
    33    16    17   ar
    34    17    18    2
    35     5     6   ar
    36     6    43    1
    37    43    44    1
    38    27    28   ar
    39    35    36   ar
    40    36    37   ar
    41    42    40    1
    42    37    33   ar
    43    28    22   ar
    44     6     1   ar
    45    17     7   ar
    46    16    10   ar
    47    21    19    1
    48    31    32    1
    49    25    29    1
    50    25    30    1
    51    44    45    1
@<TRIPOS>MOLECULE
*****
 45 51 0 0 0
SMALL
GASTEIGER

@<TRIPOS>ATOM
      1 C         139.1297  143.0780  158.2342 C.ar    1  UNL1        0.0358
      2 C         139.8476  144.2124  157.5649 C.ar    1  UNL1        0.0029
      3 C         140.5384  145.2553  158.3927 C.ar    1  UNL1        0.0016
      4 C         140.5113  145.1639  159.8897 C.ar    1  UNL1        0.0174
      5 C         139.7934  144.0295  160.5589 C.ar    1  UNL1        0.0653
      6 C         139.1026  142.9866  159.7312 C.ar    1  UNL1        0.0261
      7 N         139.7664  143.9381  162.0559 N.ar    1  UNL1       -0.2733
      8 C         138.7287  144.6910  162.8346 C.ar    1  UNL1        0.0829
      9 C         138.7016  144.5997  164.3316 C.ar    1  UNL1        0.0193
     10 C         139.7121  143.7554  165.0498 C.ar    1  UNL1        0.0080
     11 C         139.6851  143.6639  166.5468 C.ar    1  UNL1       -0.0039
     12 C         140.6956  142.8196  167.2650 C.ar    1  UNL1       -0.0203
     13 C         141.7333  142.0667  166.4863 C.ar    1  UNL1        0.0255
     14 C         141.7604  142.1581  164.9894 C.ar    1  UNL1        0.1444
     15 F         142.7980  141.4051  164.2107 F       1  UNL1       -0.2040
     16 C         140.7498  143.0024  164.2711 C.ar    1  UNL1        0.0839
     17 C         140.7769  143.0938  162.7742 C.ar    1  UNL1        0.2668
     18 O         141.8145  142.3409  161.9955 O.2     1  UNL1       -0.2665
     19 C         140.6685  142.7282  168.7621 C.3     1  UNL1        0.0224
     20 C         139.9550  142.3571  170.0282 C.3     1  UNL1        0.0047
     21 C         141.3353  142.9410  170.0888 C.3     1  UNL1        0.0047
     22 C         136.3758  141.2555  156.0333 C.ar    1  UNL1        0.2244
     23 N         137.0573  139.9493  155.7511 N.ar    1  UNL1       -0.1810
     24 C         138.4295  139.6861  156.2967 C.ar    1  UNL1        0.2174
     25 N         139.1109  138.3799  156.0145 N.pl3   1  UNL1       -0.3273
     26 N         139.1203  140.7290  157.1244 N.ar    1  UNL1       -0.1948
     27 C         138.4389  142.0352  157.4065 C.ar    1  UNL1        0.1678
     28 N         137.0666  142.2984  156.8609 N.ar    1  UNL1       -0.1943
     29 H         138.6575  137.6954  155.4713 H       1  UNL1        0.1452
     30 H         140.0116  138.2072  156.3726 H       1  UNL1        0.1452
     31 N         135.0036  141.5187  155.4877 N.pl3   1  UNL1       -0.2800
     32 H         134.8842  142.1428  154.7357 H       1  UNL1        0.1552
     33 N         131.5259  140.1912  156.5871 N.ar    1  UNL1       -0.2500
     34 C         132.3765  141.1036  155.7540 C.ar    1  UNL1        0.1112
     35 C         133.8132  140.8311  156.0879 C.ar    1  UNL1        0.0906
     36 C         133.8506  139.7503  157.1274 C.ar    1  UNL1        0.1363
     37 N         132.4370  139.3548  157.4359 N.ar    1  UNL1       -0.1664
     38 C         129.2622  140.6998  155.4179 C.3     1  UNL1        0.0263
     39 C         130.0274  140.1265  156.5737 C.3     1  UNL1        0.1053
     40 C         129.2940  139.4885  157.7161 C.3     1  UNL1        0.0225
     41 C         128.1178  139.4520  158.6463 C.3     1  UNL1        0.0020
     42 C         129.1999  138.4200  158.7647 C.3     1  UNL1        0.0020
     43 C         138.3847  141.8523  160.4005 C.3     1  UNL1        0.1651
     44 O         138.9885  140.4791  160.4018 O.3     1  UNL1       -0.3772
     45 H         139.0195  140.1387  159.4940 H       1  UNL1        0.2109
@<TRIPOS>BOND
     1    38    39    1
     2    39    40    1
     3    40    41    1
     4    41    42    1
     5    39    33    1
     6    33    34   ar
     7    34    35   ar
     8    35    31    1
     9    31    22    1
    10    22    23   ar
    11    23    24   ar
    12    24    25    1
    13    24    26   ar
    14    26    27   ar
    15    27     1    1
    16     1     2   ar
    17     2     3   ar
    18     3     4   ar
    19     4     5   ar
    20     5     7    1
    21     7     8   ar
    22     8     9   ar
    23     9    10   ar
    24    10    11   ar
    25    11    12   ar
    26    12    19    1
    27    19    20    1
    28    20    21    1
    29    12    13   ar
    30    13    14   ar
    31    14    15    1
    32    14    16   ar
    33    16    17   ar
    34    17    18    2
    35     5     6   ar
    36     6    43    1
    37    43    44    1
    38    27    28   ar
    39    35    36   ar
    40    36    37   ar
    41    42    40    1
    42    37    33   ar
    43    28    22   ar
    44     6     1   ar
    45    17     7   ar
    46    16    10   ar
    47    21    19    1
    48    31    32    1
    49    25    29    1
    50    25    30    1
    51    44    45    1
@<TRIPOS>MOLECULE
*****
 45 51 0 0 0
SMALL
GASTEIGER

@<TRIPOS>ATOM
      1 C         141.6411  143.8949  158.3300 C.ar    1  UNL1        0.0358
      2 C         142.9904  143.4678  157.8333 C.ar    1  UNL1        0.0029
      3 C         143.9903  142.8838  158.7869 C.ar    1  UNL1        0.0016
      4 C         143.6408  142.7269  160.2371 C.ar    1  UNL1        0.0174
      5 C         142.2914  143.1541  160.7338 C.ar    1  UNL1        0.0653
      6 C         141.2916  143.7381  159.7803 C.ar    1  UNL1        0.0261
      7 N         141.9419  142.9972  162.1841 N.ar    1  UNL1       -0.2733
      8 C         142.2862  144.0829  163.1602 C.ar    1  UNL1        0.0829
      9 C         141.9368  143.9260  164.6105 C.ar    1  UNL1        0.0193
     10 C         141.2431  142.6835  165.0846 C.ar    1  UNL1        0.0080
     11 C         140.8936  142.5266  166.5349 C.ar    1  UNL1       -0.0039
     12 C         140.1998  141.2841  167.0091 C.ar    1  UNL1       -0.0203
     13 C         139.8556  140.1984  166.0330 C.ar    1  UNL1        0.0255
     14 C         140.2050  140.3553  164.5827 C.ar    1  UNL1        0.1444
     15 F         139.8607  139.2696  163.6066 F       1  UNL1       -0.2040
     16 C         140.8988  141.5978  164.1085 C.ar    1  UNL1        0.0839
     17 C         141.2482  141.7547  162.6583 C.ar    1  UNL1        0.2668
     18 O         140.9039  140.6690  161.6822 O.2     1  UNL1       -0.2665
     19 C         139.8504  141.1272  168.4594 C.3     1  UNL1        0.0224
     20 C         139.2746  140.3070  169.5755 C.3     1  UNL1        0.0047
     21 C         139.8208  141.6758  169.8551 C.3     1  UNL1        0.0047
     22 C         138.8776  144.1658  155.4946 C.ar    1  UNL1        0.2244
     23 N         138.6414  145.6470  155.4695 N.ar    1  UNL1       -0.1810
     24 C         139.4051  146.5440  156.3980 C.ar    1  UNL1        0.2174
     25 N         139.1690  148.0251  156.3730 N.pl3   1  UNL1       -0.3273
     26 N         140.4050  145.9600  157.3515 N.ar    1  UNL1       -0.1948
     27 C         140.6412  144.4789  157.3765 C.ar    1  UNL1        0.1678
     28 N         139.8775  143.5819  156.4481 N.ar    1  UNL1       -0.1943
     29 H         138.5127  148.4084  155.7472 H       1  UNL1        0.1452
     30 H         139.6702  148.6138  156.9824 H       1  UNL1        0.1452
     31 N         138.1139  143.2688  154.5661 N.pl3   1  UNL1       -0.2800
     32 H         138.2325  143.3525  153.5924 H       1  UNL1        0.1552
     33 N         135.1336  141.0758  155.7381 N.ar    1  UNL1       -0.2500
     34 C         135.6718  142.3026  155.0634 C.ar    1  UNL1        0.1112
     35 C         137.1695  142.2442  155.1213 C.ar    1  UNL1        0.0906
     36 C         137.5570  140.9812  155.8317 C.ar    1  UNL1        0.1363
     37 N         136.2987  140.2591  156.2129 N.ar    1  UNL1       -0.1664
     38 C         132.6406  141.4487  155.1087 C.3     1  UNL1        0.0263
     39 C         133.6846  140.7269  155.9080 C.3     1  UNL1        0.1053
     40 C         133.2797  139.6562  156.8774 C.3     1  UNL1        0.0225
     41 C         133.4151  139.0002  158.2195 C.3     1  UNL1        0.0020
     42 C         132.4430  138.4577  157.2142 C.3     1  UNL1        0.0020
     43 C         139.9422  144.1652  160.2771 C.3     1  UNL1        0.1651
     44 O         139.6583  145.6177  160.5219 O.3     1  UNL1       -0.3772
     45 H         140.2091  145.9358  161.2543 H       1  UNL1        0.2109
@<TRIPOS>BOND
     1    38    39    1
     2    39    40    1
     3    40    41    1
     4    41    42    1
     5    39    33    1
     6    33    34   ar
     7    34    35   ar
     8    35    31    1
     9    31    22    1
    10    22    23   ar
    11    23    24   ar
    12    24    25    1
    13    24    26   ar
    14    26    27   ar
    15    27     1    1
    16     1     2   ar
    17     2     3   ar
    18     3     4   ar
    19     4     5   ar
    20     5     7    1
    21     7     8   ar
    22     8     9   ar
    23     9    10   ar
    24    10    11   ar
    25    11    12   ar
    26    12    19    1
    27    19    20    1
    28    20    21    1
    29    12    13   ar
    30    13    14   ar
    31    14    15    1
    32    14    16   ar
    33    16    17   ar
    34    17    18    2
    35     5     6   ar
    36     6    43    1
    37    43    44    1
    38    27    28   ar
    39    35    36   ar
    40    36    37   ar
    41    42    40    1
    42    37    33   ar
    43    28    22   ar
    44     6     1   ar
    45    17     7   ar
    46    16    10   ar
    47    21    19    1
    48    31    32    1
    49    25    29    1
    50    25    30    1
    51    44    45    1
@<TRIPOS>MOLECULE
*****
 45 51 0 0 0
SMALL
GASTEIGER

@<TRIPOS>ATOM
      1 C         140.3741  139.2952  158.0510 C.ar    1  UNL1        0.0358
      2 C         139.2300  139.8918  157.2861 C.ar    1  UNL1        0.0029
      3 C         138.1958  140.7102  158.0008 C.ar    1  UNL1        0.0016
      4 C         138.3057  140.9320  159.4802 C.ar    1  UNL1        0.0174
      5 C         139.4498  140.3353  160.2450 C.ar    1  UNL1        0.0653
      6 C         140.4840  139.5170  159.5305 C.ar    1  UNL1        0.0261
      7 N         139.5597  140.5571  161.7245 N.ar    1  UNL1       -0.2733
      8 C         140.0901  141.8579  162.2506 C.ar    1  UNL1        0.0829
      9 C         140.2000  142.0797  163.7300 C.ar    1  UNL1        0.0193
     10 C         139.7795  141.0007  164.6833 C.ar    1  UNL1        0.0080
     11 C         139.8894  141.2225  166.1628 C.ar    1  UNL1       -0.0039
     12 C         139.4690  140.1435  167.1162 C.ar    1  UNL1       -0.0203
     13 C         138.9387  138.8427  166.5902 C.ar    1  UNL1        0.0255
     14 C         138.8288  138.6209  165.1108 C.ar    1  UNL1        0.1444
     15 F         138.2984  137.3201  164.5848 F       1  UNL1       -0.2040
     16 C         139.2492  139.6999  164.1573 C.ar    1  UNL1        0.0839
     17 C         139.1393  139.4781  162.6779 C.ar    1  UNL1        0.2668
     18 O         138.6090  138.1773  162.1519 O.2     1  UNL1       -0.2665
     19 C         139.5789  140.3653  168.5957 C.3     1  UNL1        0.0224
     20 C         138.9495  140.3812  169.9572 C.3     1  UNL1        0.0047
     21 C         140.3987  140.7335  169.7967 C.3     1  UNL1        0.0047
     22 C         142.1974  136.2019  156.3609 C.ar    1  UNL1        0.2244
     23 N         143.4769  136.8401  155.9072 N.ar    1  UNL1       -0.1810
     24 C         143.7220  138.2968  156.1682 C.ar    1  UNL1        0.2174
     25 N         145.0014  138.9351  155.7146 N.pl3   1  UNL1       -0.3273
     26 N         142.6877  139.1151  156.8828 N.ar    1  UNL1       -0.1948
     27 C         141.4084  138.4769  157.3364 C.ar    1  UNL1        0.1678
     28 N         141.1632  137.0202  157.0755 N.ar    1  UNL1       -0.1943
     29 H         145.6802  138.3980  155.2456 H       1  UNL1        0.1452
     30 H         145.1622  139.8911  155.8859 H       1  UNL1        0.1452
     31 N         141.9523  134.7452  156.0999 N.pl3   1  UNL1       -0.2800
     32 H         141.1837  134.4659  155.5518 H       1  UNL1        0.1552
     33 N         144.0219  131.6141  157.0887 N.ar    1  UNL1       -0.2500
     34 C         142.9676  132.2773  156.2529 C.ar    1  UNL1        0.1112
     35 C         142.8782  133.7142  156.6740 C.ar    1  UNL1        0.0906
     36 C         143.8773  133.9391  157.7701 C.ar    1  UNL1        0.1363
     37 N         144.5842  132.6411  158.0264 N.ar    1  UNL1       -0.1664
     38 C         144.8308  129.5872  155.6789 C.3     1  UNL1        0.0263
     39 C         144.4406  130.1763  157.0020 C.3     1  UNL1        0.1053
     40 C         144.4689  129.3276  158.2385 C.3     1  UNL1        0.0225
     41 C         145.2245  128.4626  159.2033 C.3     1  UNL1        0.0020
     42 C         143.7625  128.7225  159.4153 C.3     1  UNL1        0.0020
     43 C         141.6282  138.9204  160.2953 C.3     1  UNL1        0.1651
     44 O         141.4401  137.6345  161.0446 O.3     1  UNL1       -0.3772
     45 H         140.8132  137.7728  161.7718 H       1  UNL1        0.2109
@<TRIPOS>BOND
     1    38    39    1
     2    39    40    1
     3    40    41    1
     4    41    42    1
     5    39    33    1
     6    33    34   ar
     7    34    35   ar
     8    35    31    1
     9    31    22    1
    10    22    23   ar
    11    23    24   ar
    12    24    25    1
    13    24    26   ar
    14    26    27   ar
    15    27     1    1
    16     1     2   ar
    17     2     3   ar
    18     3     4   ar
    19     4     5   ar
    20     5     7    1
    21     7     8   ar
    22     8     9   ar
    23     9    10   ar
    24    10    11   ar
    25    11    12   ar
    26    12    19    1
    27    19    20    1
    28    20    21    1
    29    12    13   ar
    30    13    14   ar
    31    14    15    1
    32    14    16   ar
    33    16    17   ar
    34    17    18    2
    35     5     6   ar
    36     6    43    1
    37    43    44    1
    38    27    28   ar
    39    35    36   ar
    40    36    37   ar
    41    42    40    1
    42    37    33   ar
    43    28    22   ar
    44     6     1   ar
    45    17     7   ar
    46    16    10   ar
    47    21    19    1
    48    31    32    1
    49    25    29    1
    50    25    30    1
    51    44    45    1
@<TRIPOS>MOLECULE
*****
 45 51 0 0 0
SMALL
GASTEIGER

@<TRIPOS>ATOM
      1 C         140.7317  139.3477  158.0098 C.ar    1  UNL1        0.0358
      2 C         139.5301  139.8516  157.2666 C.ar    1  UNL1        0.0029
      3 C         138.2971  140.2547  158.0198 C.ar    1  UNL1        0.0016
      4 C         138.2657  140.1539  159.5161 C.ar    1  UNL1        0.0174
      5 C         139.4672  139.6499  160.2592 C.ar    1  UNL1        0.0653
      6 C         140.7002  139.2468  159.5061 C.ar    1  UNL1        0.0261
      7 N         139.4358  139.5491  161.7555 N.ar    1  UNL1       -0.2733
      8 C         138.9109  138.3070  162.4126 C.ar    1  UNL1        0.0829
      9 C         138.8794  138.2061  163.9089 C.ar    1  UNL1        0.0193
     10 C         139.3728  139.3473  164.7480 C.ar    1  UNL1        0.0080
     11 C         139.3413  139.2464  166.2443 C.ar    1  UNL1       -0.0039
     12 C         139.8347  140.3876  167.0835 C.ar    1  UNL1       -0.0203
     13 C         140.3595  141.6297  166.4264 C.ar    1  UNL1        0.0255
     14 C         140.3910  141.7306  164.9302 C.ar    1  UNL1        0.1444
     15 F         140.9159  142.9727  164.2731 F       1  UNL1       -0.2040
     16 C         139.8976  140.5894  164.0909 C.ar    1  UNL1        0.0839
     17 C         139.9291  140.6902  162.5947 C.ar    1  UNL1        0.2668
     18 O         140.4540  141.9323  161.9376 O.2     1  UNL1       -0.2665
     19 C         139.8032  140.2868  168.5798 C.3     1  UNL1        0.0224
     20 C         140.5050  140.0234  169.8791 C.3     1  UNL1        0.0047
     21 C         139.0469  140.3754  169.8721 C.3     1  UNL1        0.0047
     22 C         143.2138  137.2618  155.7212 C.ar    1  UNL1        0.2244
     23 N         144.4307  138.1384  155.7505 N.ar    1  UNL1       -0.1810
     24 C         144.4146  139.4181  156.5328 C.ar    1  UNL1        0.2174
     25 N         145.6314  140.2947  156.5621 N.pl3   1  UNL1       -0.3273
     26 N         143.1815  139.8211  157.2860 N.ar    1  UNL1       -0.1948
     27 C         141.9647  138.9446  157.2567 C.ar    1  UNL1        0.1678
     28 N         141.9808  137.6649  156.4743 N.ar    1  UNL1       -0.1943
     29 H         146.4406  140.0301  156.0678 H       1  UNL1        0.1452
     30 H         145.6207  141.1346  157.0756 H       1  UNL1        0.1452
     31 N         143.2300  135.9821  154.9388 N.pl3   1  UNL1       -0.2800
     32 H         143.3352  136.0047  153.9602 H       1  UNL1        0.1552
     33 N         142.7006  132.3122  156.0862 N.ar    1  UNL1       -0.2500
     34 C         142.7366  133.3560  155.0096 C.ar    1  UNL1        0.1112
     35 C         143.0859  134.6679  155.6474 C.ar    1  UNL1        0.0906
     36 C         143.2658  134.4349  157.1182 C.ar    1  UNL1        0.1363
     37 N         143.0277  132.9790  157.3895 N.ar    1  UNL1       -0.1664
     38 C         143.2457  129.8152  156.5534 C.3     1  UNL1        0.0263
     39 C         142.3918  130.8570  155.8934 C.3     1  UNL1        0.1053
     40 C         141.2290  130.4436  155.0407 C.3     1  UNL1        0.0225
     41 C         140.5311  129.4087  154.2090 C.3     1  UNL1        0.0020
     42 C         139.9130  130.7626  154.3955 C.3     1  UNL1        0.0020
     43 C         141.9018  138.7428  160.2492 C.3     1  UNL1        0.1651
     44 O         141.8528  137.4122  160.9399 O.3     1  UNL1       -0.3772
     45 H         141.2147  137.4499  161.6695 H       1  UNL1        0.2109
@<TRIPOS>BOND
     1    38    39    1
     2    39    40    1
     3    40    41    1
     4    41    42    1
     5    39    33    1
     6    33    34   ar
     7    34    35   ar
     8    35    31    1
     9    31    22    1
    10    22    23   ar
    11    23    24   ar
    12    24    25    1
    13    24    26   ar
    14    26    27   ar
    15    27     1    1
    16     1     2   ar
    17     2     3   ar
    18     3     4   ar
    19     4     5   ar
    20     5     7    1
    21     7     8   ar
    22     8     9   ar
    23     9    10   ar
    24    10    11   ar
    25    11    12   ar
    26    12    19    1
    27    19    20    1
    28    20    21    1
    29    12    13   ar
    30    13    14   ar
    31    14    15    1
    32    14    16   ar
    33    16    17   ar
    34    17    18    2
    35     5     6   ar
    36     6    43    1
    37    43    44    1
    38    27    28   ar
    39    35    36   ar
    40    36    37   ar
    41    42    40    1
    42    37    33   ar
    43    28    22   ar
    44     6     1   ar
    45    17     7   ar
    46    16    10   ar
    47    21    19    1
    48    31    32    1
    49    25    29    1
    50    25    30    1
    51    44    45    1
