@<TRIPOS>MOLECULE
*****
 43 46 0 0 0
SMALL
GASTEIGER

@<TRIPOS>ATOM
      1 C         139.3409  139.7332  159.0946 C.3     1  UNL1        0.1035
      2 C         140.5990  140.4085  159.5542 C.3     1  UNL1        0.0933
      3 N         140.5170  139.6731  160.8590 N.3     1  UNL1       -0.2711
      4 C         139.2590  138.9978  160.3993 C.3     1  UNL1        0.0933
      5 C         141.3486  139.6306  162.1066 C.3     1  UNL1        0.0578
      6 C         142.6888  138.9571  162.0921 C.3     1  UNL1        0.0187
      7 C         143.5204  138.9146  163.3398 C.3     1  UNL1        0.0326
      8 C         143.0118  139.5457  164.6020 C.3     1  UNL1        0.1085
      9 O         144.3349  139.0290  165.0839 O.3     1  UNL1       -0.3826
     10 C         141.6716  140.2192  164.6165 C.3     1  UNL1        0.0326
     11 C         140.8400  140.2617  163.3688 C.3     1  UNL1        0.0187
     12 H         144.7927  138.5825  164.3546 H       1  UNL1        0.2107
     13 C         142.9627  139.9973  166.0315 C.ar    1  UNL1        0.0211
     14 C         142.9402  141.4619  166.3550 C.ar    1  UNL1        0.0043
     15 C         142.8911  141.9135  167.7845 C.ar    1  UNL1        0.0575
     16 C         142.8644  140.9006  168.8906 C.ar    1  UNL1        0.2251
     17 N         142.8869  139.4362  168.5672 N.ar    1  UNL1       -0.2104
     18 C         142.9360  138.9844  167.1376 C.ar    1  UNL1        0.1000
     19 O         142.8153  141.3523  170.3201 O.3     1  UNL1       -0.4509
     20 C         141.7691  142.3323  170.7615 C.3     1  UNL1        0.3095
     21 C         140.3178  142.0396  170.5206 C.3     1  UNL1        0.4381
     22 F         138.8666  141.7467  170.2797 F       1  UNL1       -0.1663
     23 F         140.1896  143.3153  169.7421 F       1  UNL1       -0.1663
     24 F         140.4459  140.7638  171.2990 F       1  UNL1       -0.1663
     25 O         137.9718  142.2786  158.2904 O.2     1  UNL1       -0.2733
     26 C         137.8248  141.0484  157.4448 C.2     1  UNL1        0.2426
     27 N         138.5093  139.7757  157.8468 N.am    1  UNL1       -0.3018
     28 H         138.4128  138.9683  157.2918 H       1  UNL1        0.1495
     29 C         136.9933  141.0909  156.1971 C.3     1  UNL1        0.1759
     30 N         135.5035  141.2375  156.2933 N.am    1  UNL1       -0.2931
     31 C         134.6091  140.1239  155.8350 C.2     1  UNL1        0.2462
     32 O         135.2044  138.8637  155.2806 O.2     1  UNL1       -0.2701
     33 H         135.1128  142.0646  156.6572 H       1  UNL1        0.1502
     34 C         133.1194  140.2706  155.9312 C.ar    1  UNL1        0.0533
     35 C         132.4348  141.4262  155.2634 C.ar    1  UNL1        0.0045
     36 C         130.9451  141.5728  155.3596 C.ar    1  UNL1        0.0001
     37 C         130.1400  140.5638  156.1236 C.ar    1  UNL1        0.0039
     38 C         130.8245  139.4082  156.7914 C.ar    1  UNL1        0.0716
     39 C         132.3142  139.2616  156.6952 C.ar    1  UNL1        0.0084
     40 C         130.0194  138.3992  157.5554 C.3     1  UNL1        0.4186
     41 F         129.2142  137.3902  158.3194 F       1  UNL1       -0.1659
     42 F         130.3379  137.3613  156.5203 F       1  UNL1       -0.1659
     43 F         129.7008  139.4371  158.5904 F       1  UNL1       -0.1659
@<TRIPOS>BOND
     1    25    26    2
     2    26    29    1
     3    29    30    1
     4    30    31   am
     5    31    32    2
     6    31    34    1
     7    34    35   ar
     8    35    36   ar
     9    36    37   ar
    10    37    38   ar
    11    38    40    1
    12    40    41    1
    13    40    42    1
    14    40    43    1
    15    38    39   ar
    16    26    27   am
    17    27     1    1
    18     1     2    1
    19     2     3    1
    20     5     3    1
    21     5     6    1
    22     6     7    1
    23     7     8    1
    24     8     9    1
    25     8    13    1
    26    13    14   ar
    27    14    15   ar
    28    15    16   ar
    29    16    19    1
    30    19    20    1
    31    20    21    1
    32    21    22    1
    33    21    23    1
    34    21    24    1
    35    16    17   ar
    36    17    18   ar
    37     8    10    1
    38    10    11    1
    39     3     4    1
    40    39    34   ar
    41     4     1    1
    42    11     5    1
    43    18    13   ar
    44    30    33    1
    45    27    28    1
    46     9    12    1
@<TRIPOS>MOLECULE
*****
 43 46 0 0 0
SMALL
GASTEIGER

@<TRIPOS>ATOM
      1 C         138.0852  140.0534  159.1891 C.3     1  UNL1        0.1035
      2 C         137.6933  139.6584  160.5821 C.3     1  UNL1        0.0933
      3 N         139.1328  139.7083  161.0011 N.3     1  UNL1       -0.2711
      4 C         139.5246  140.1033  159.6081 C.3     1  UNL1        0.0933
      5 C         139.8735  139.4642  162.2824 C.3     1  UNL1        0.0578
      6 C         141.0860  138.5812  162.2913 C.3     1  UNL1        0.0187
      7 C         141.8268  138.3372  163.5726 C.3     1  UNL1        0.0326
      8 C         141.3550  138.9762  164.8450 C.3     1  UNL1        0.1085
      9 O         142.5475  138.2244  165.3576 O.3     1  UNL1       -0.3826
     10 C         140.1425  139.8592  164.8362 C.3     1  UNL1        0.0326
     11 C         139.4017  140.1032  163.5549 C.3     1  UNL1        0.0187
     12 H         142.9684  137.7476  164.6252 H       1  UNL1        0.2107
     13 C         141.2974  139.3541  166.2955 C.ar    1  UNL1        0.0211
     14 C         139.9810  139.6908  166.9311 C.ar    1  UNL1        0.0043
     15 C         139.9234  140.0687  168.3815 C.ar    1  UNL1        0.0575
     16 C         141.1821  140.1099  169.1964 C.ar    1  UNL1        0.2251
     17 N         142.4983  139.7733  168.5609 N.ar    1  UNL1       -0.2104
     18 C         142.5561  139.3953  167.1104 C.ar    1  UNL1        0.1000
     19 O         141.1243  140.4879  170.6468 O.3     1  UNL1       -0.4509
     20 C         141.3722  141.9076  171.0625 C.3     1  UNL1        0.3095
     21 C         140.8174  143.0363  170.2450 C.3     1  UNL1        0.4381
     22 F         140.2626  144.1649  169.4275 F       1  UNL1       -0.1663
     23 F         139.4240  142.5706  170.5475 F       1  UNL1       -0.1663
     24 F         142.2107  143.5020  169.9424 F       1  UNL1       -0.1663
     25 O         138.1581  142.7648  157.9072 O.2     1  UNL1       -0.2733
     26 C         137.3808  141.6531  157.2668 C.2     1  UNL1        0.2426
     27 N         137.3444  140.2974  157.9078 N.am    1  UNL1       -0.3018
     28 H         136.8342  139.5678  157.4875 H       1  UNL1        0.1495
     29 C         136.6400  141.8971  155.9856 C.3     1  UNL1        0.1759
     30 N         135.1404  141.8655  155.9686 N.am    1  UNL1       -0.2931
     31 C         134.4187  140.5529  155.8917 C.2     1  UNL1        0.2462
     32 O         135.1965  139.2717  155.8318 O.2     1  UNL1       -0.2701
     33 H         134.6299  142.7064  156.0079 H       1  UNL1        0.1502
     34 C         132.9191  140.5213  155.8747 C.ar    1  UNL1        0.0533
     35 C         132.1533  141.6227  155.2034 C.ar    1  UNL1        0.0045
     36 C         130.6538  141.5911  155.1864 C.ar    1  UNL1        0.0001
     37 C         129.9200  140.4582  155.8407 C.ar    1  UNL1        0.0039
     38 C         130.6857  139.3569  156.5120 C.ar    1  UNL1        0.0716
     39 C         132.1853  139.3884  156.5290 C.ar    1  UNL1        0.0084
     40 C         129.9519  138.2240  157.1663 C.3     1  UNL1        0.4186
     41 F         129.2181  137.0911  157.8205 F       1  UNL1       -0.1659
     42 F         130.1992  138.8405  158.5111 F       1  UNL1       -0.1659
     43 F         129.7047  137.6074  155.8214 F       1  UNL1       -0.1659
@<TRIPOS>BOND
     1    25    26    2
     2    26    29    1
     3    29    30    1
     4    30    31   am
     5    31    32    2
     6    31    34    1
     7    34    35   ar
     8    35    36   ar
     9    36    37   ar
    10    37    38   ar
    11    38    40    1
    12    40    41    1
    13    40    42    1
    14    40    43    1
    15    38    39   ar
    16    26    27   am
    17    27     1    1
    18     1     2    1
    19     2     3    1
    20     5     3    1
    21     5     6    1
    22     6     7    1
    23     7     8    1
    24     8     9    1
    25     8    13    1
    26    13    14   ar
    27    14    15   ar
    28    15    16   ar
    29    16    19    1
    30    19    20    1
    31    20    21    1
    32    21    22    1
    33    21    23    1
    34    21    24    1
    35    16    17   ar
    36    17    18   ar
    37     8    10    1
    38    10    11    1
    39     3     4    1
    40    39    34   ar
    41     4     1    1
    42    11     5    1
    43    18    13   ar
    44    30    33    1
    45    27    28    1
    46     9    12    1
@<TRIPOS>MOLECULE
*****
 43 46 0 0 0
SMALL
GASTEIGER

@<TRIPOS>ATOM
      1 C         141.6011  144.5564  160.6974 C.3     1  UNL1        0.1035
      2 C         140.9198  144.8549  162.0000 C.3     1  UNL1        0.0933
      3 N         141.6483  143.7120  162.6429 N.3     1  UNL1       -0.2711
      4 C         142.3296  143.4136  161.3402 C.3     1  UNL1        0.0933
      5 C         141.6817  143.1149  164.0185 C.3     1  UNL1        0.0578
      6 C         142.9925  142.9281  164.7234 C.3     1  UNL1        0.0187
      7 C         143.0259  142.3310  166.0990 C.3     1  UNL1        0.0326
      8 C         141.7485  141.9207  166.7697 C.3     1  UNL1        0.1085
      9 O         142.7345  141.5463  167.8362 O.3     1  UNL1       -0.3826
     10 C         140.4377  142.1076  166.0648 C.3     1  UNL1        0.0326
     11 C         140.4043  142.7047  164.6892 C.3     1  UNL1        0.0187
     12 H         143.6319  141.7598  167.5362 H       1  UNL1        0.2107
     13 C         140.8135  141.3804  167.8108 C.ar    1  UNL1        0.0211
     14 C         140.7766  141.9965  169.1780 C.ar    1  UNL1        0.0043
     15 C         139.8416  141.4562  170.2191 C.ar    1  UNL1        0.0575
     16 C         138.9435  140.2998  169.8930 C.ar    1  UNL1        0.2251
     17 N         138.9804  139.6838  168.5260 N.ar    1  UNL1       -0.2104
     18 C         139.9154  140.2240  167.4847 C.ar    1  UNL1        0.1000
     19 O         138.0086  139.7596  170.9341 O.3     1  UNL1       -0.4509
     20 C         136.8846  138.8505  170.5338 C.3     1  UNL1        0.3095
     21 C         135.8762  138.4107  171.5534 C.3     1  UNL1        0.4381
     22 F         134.8678  137.9707  172.5729 F       1  UNL1       -0.1663
     23 F         135.5023  139.8420  171.8012 F       1  UNL1       -0.1663
     24 F         136.2500  136.9793  171.3056 F       1  UNL1       -0.1663
     25 O         140.3785  143.0242  158.4263 O.2     1  UNL1       -0.2733
     26 C         140.9564  144.3875  158.1862 C.2     1  UNL1        0.2426
     27 N         141.5676  145.1536  159.3217 N.am    1  UNL1       -0.3018
     28 H         141.9469  146.0483  159.1642 H       1  UNL1        0.1495
     29 C         140.9230  144.9846  156.8107 C.3     1  UNL1        0.1759
     30 N         140.6688  146.4527  156.6363 N.am    1  UNL1       -0.2931
     31 C         139.4031  146.9222  155.9823 C.2     1  UNL1        0.2462
     32 O         138.3917  145.9238  155.5027 O.2     1  UNL1       -0.2701
     33 H         141.3326  147.1080  156.9511 H       1  UNL1        0.1502
     34 C         139.1489  148.3902  155.8079 C.ar    1  UNL1        0.0533
     35 C         138.3905  149.1497  156.8557 C.ar    1  UNL1        0.0045
     36 C         138.1364  150.6177  156.6813 C.ar    1  UNL1        0.0001
     37 C         138.6406  151.3261  155.4591 C.ar    1  UNL1        0.0039
     38 C         139.3990  150.5666  154.4113 C.ar    1  UNL1        0.0716
     39 C         139.6532  149.0987  154.5857 C.ar    1  UNL1        0.0084
     40 C         139.9033  151.2751  153.1890 C.3     1  UNL1        0.4186
     41 F         140.4075  151.9835  151.9668 F       1  UNL1       -0.1659
     42 F         138.5799  151.9662  153.0437 F       1  UNL1       -0.1659
     43 F         141.2266  150.5840  153.3344 F       1  UNL1       -0.1659
@<TRIPOS>BOND
     1    25    26    2
     2    26    29    1
     3    29    30    1
     4    30    31   am
     5    31    32    2
     6    31    34    1
     7    34    35   ar
     8    35    36   ar
     9    36    37   ar
    10    37    38   ar
    11    38    40    1
    12    40    41    1
    13    40    42    1
    14    40    43    1
    15    38    39   ar
    16    26    27   am
    17    27     1    1
    18     1     2    1
    19     2     3    1
    20     5     3    1
    21     5     6    1
    22     6     7    1
    23     7     8    1
    24     8     9    1
    25     8    13    1
    26    13    14   ar
    27    14    15   ar
    28    15    16   ar
    29    16    19    1
    30    19    20    1
    31    20    21    1
    32    21    22    1
    33    21    23    1
    34    21    24    1
    35    16    17   ar
    36    17    18   ar
    37     8    10    1
    38    10    11    1
    39     3     4    1
    40    39    34   ar
    41     4     1    1
    42    11     5    1
    43    18    13   ar
    44    30    33    1
    45    27    28    1
    46     9    12    1
@<TRIPOS>MOLECULE
*****
 43 46 0 0 0
SMALL
GASTEIGER

@<TRIPOS>ATOM
      1 C         140.3092  144.1835  160.2109 C.3     1  UNL1        0.1035
      2 C         139.9900  144.7460  161.5643 C.3     1  UNL1        0.0933
      3 N         140.5856  143.5302  162.2101 N.3     1  UNL1       -0.2711
      4 C         140.9047  142.9676  160.8567 C.3     1  UNL1        0.0933
      5 C         140.7810  143.0682  163.6237 C.3     1  UNL1        0.0578
      6 C         142.1203  143.2163  164.2828 C.3     1  UNL1        0.0187
      7 C         142.3156  142.7544  165.6965 C.3     1  UNL1        0.0326
      8 C         141.1718  142.1443  166.4511 C.3     1  UNL1        0.1085
      9 O         142.2430  142.0718  167.4985 O.3     1  UNL1       -0.3826
     10 C         139.8325  141.9961  165.7920 C.3     1  UNL1        0.0326
     11 C         139.6371  142.4581  164.3783 C.3     1  UNL1        0.0187
     12 H         143.0669  142.4417  167.1445 H       1  UNL1        0.2107
     13 C         140.3999  141.5090  167.5694 C.ar    1  UNL1        0.0211
     14 C         140.3443  142.1722  168.9137 C.ar    1  UNL1        0.0043
     15 C         139.5725  141.5369  170.0320 C.ar    1  UNL1        0.0575
     16 C         138.8562  140.2384  169.8060 C.ar    1  UNL1        0.2251
     17 N         138.9118  139.5753  168.4618 N.ar    1  UNL1       -0.2104
     18 C         139.6837  140.2105  167.3434 C.ar    1  UNL1        0.1000
     19 O         138.0844  139.6032  170.9244 O.3     1  UNL1       -0.4509
     20 C         136.8570  138.7950  170.6243 C.3     1  UNL1        0.3095
     21 C         135.9120  138.4276  171.7297 C.3     1  UNL1        0.4381
     22 F         134.9669  138.0602  172.8351 F       1  UNL1       -0.1663
     23 F         135.5443  139.8724  171.8956 F       1  UNL1       -0.1663
     24 F         136.2795  136.9829  171.5638 F       1  UNL1       -0.1663
     25 O         139.0267  142.3623  158.2013 O.2     1  UNL1       -0.2733
     26 C         139.4725  143.7349  157.7925 C.2     1  UNL1        0.2426
     27 N         140.1137  144.6455  158.7972 N.am    1  UNL1       -0.3018
     28 H         140.4064  145.5464  158.5289 H       1  UNL1        0.1495
     29 C         139.2771  144.1969  156.3789 C.3     1  UNL1        0.1759
     30 N         139.7608  145.5535  155.9596 N.am    1  UNL1       -0.2931
     31 C         138.8777  146.4430  155.1356 C.2     1  UNL1        0.2462
     32 O         137.5109  145.9760  154.7309 O.2     1  UNL1       -0.2701
     33 H         140.6579  145.8600  156.2251 H       1  UNL1        0.1502
     34 C         139.3614  147.7996  154.7163 C.ar    1  UNL1        0.0533
     35 C         140.3208  147.9328  153.5710 C.ar    1  UNL1        0.0045
     36 C         140.8045  149.2893  153.1517 C.ar    1  UNL1        0.0001
     37 C         140.3288  150.5127  153.8777 C.ar    1  UNL1        0.0039
     38 C         139.3694  150.3795  155.0230 C.ar    1  UNL1        0.0716
     39 C         138.8857  149.0229  155.4423 C.ar    1  UNL1        0.0084
     40 C         138.8937  151.6028  155.7491 C.3     1  UNL1        0.4186
     41 F         138.4180  152.8262  156.4751 F       1  UNL1       -0.1659
     42 F         138.6913  152.3024  154.4377 F       1  UNL1       -0.1659
     43 F         139.0961  150.9032  157.0604 F       1  UNL1       -0.1659
@<TRIPOS>BOND
     1    25    26    2
     2    26    29    1
     3    29    30    1
     4    30    31   am
     5    31    32    2
     6    31    34    1
     7    34    35   ar
     8    35    36   ar
     9    36    37   ar
    10    37    38   ar
    11    38    40    1
    12    40    41    1
    13    40    42    1
    14    40    43    1
    15    38    39   ar
    16    26    27   am
    17    27     1    1
    18     1     2    1
    19     2     3    1
    20     5     3    1
    21     5     6    1
    22     6     7    1
    23     7     8    1
    24     8     9    1
    25     8    13    1
    26    13    14   ar
    27    14    15   ar
    28    15    16   ar
    29    16    19    1
    30    19    20    1
    31    20    21    1
    32    21    22    1
    33    21    23    1
    34    21    24    1
    35    16    17   ar
    36    17    18   ar
    37     8    10    1
    38    10    11    1
    39     3     4    1
    40    39    34   ar
    41     4     1    1
    42    11     5    1
    43    18    13   ar
    44    30    33    1
    45    27    28    1
    46     9    12    1
@<TRIPOS>MOLECULE
*****
 43 46 0 0 0
SMALL
GASTEIGER

@<TRIPOS>ATOM
      1 C         140.6191  138.9874  161.5655 C.3     1  UNL1        0.1035
      2 C         141.0649  138.3914  162.8678 C.3     1  UNL1        0.0933
      3 N         140.6677  139.6504  163.5800 N.3     1  UNL1       -0.2711
      4 C         140.2220  140.2464  162.2776 C.3     1  UNL1        0.0933
      5 C         140.7021  140.1191  165.0044 C.3     1  UNL1        0.0578
      6 C         139.6239  139.6984  165.9586 C.3     1  UNL1        0.0187
      7 C         139.6583  140.1672  167.3831 C.3     1  UNL1        0.0326
      8 C         140.7709  141.0567  167.8533 C.3     1  UNL1        0.1085
      9 O         139.9842  140.9296  169.1241 O.3     1  UNL1       -0.3826
     10 C         141.8490  141.4774  166.8990 C.3     1  UNL1        0.0326
     11 C         141.8146  141.0087  165.4746 C.3     1  UNL1        0.0187
     12 H         139.2105  140.3652  168.9703 H       1  UNL1        0.2107
     13 C         141.6102  141.9021  168.7648 C.ar    1  UNL1        0.0211
     14 C         143.0867  141.6575  168.8662 C.ar    1  UNL1        0.0043
     15 C         143.9260  142.5028  169.7778 C.ar    1  UNL1        0.0575
     16 C         143.2889  143.5928  170.5879 C.ar    1  UNL1        0.2251
     17 N         141.8125  143.8373  170.4865 N.ar    1  UNL1       -0.2104
     18 C         140.9730  142.9920  169.5749 C.ar    1  UNL1        0.1000
     19 O         144.1283  144.4380  171.4994 O.3     1  UNL1       -0.4509
     20 C         145.5874  144.6315  171.2106 C.3     1  UNL1        0.3095
     21 C         146.3350  145.7638  171.8501 C.3     1  UNL1        0.4381
     22 F         147.0824  146.8961  172.4897 F       1  UNL1       -0.1663
     23 F         147.4259  144.8163  172.2528 F       1  UNL1       -0.1663
     24 F         145.2441  146.7113  171.4476 F       1  UNL1       -0.1663
     25 O         143.0074  139.3913  159.7953 O.2     1  UNL1       -0.2733
     26 C         141.7789  138.7205  159.2559 C.2     1  UNL1        0.2426
     27 N         140.5848  138.5186  160.1410 N.am    1  UNL1       -0.3018
     28 H         139.7785  138.0783  159.7869 H       1  UNL1        0.1495
     29 C         141.7445  138.2517  157.8315 C.3     1  UNL1        0.1759
     30 N         142.3509  136.9304  157.4620 N.am    1  UNL1       -0.2931
     31 C         141.8663  136.1964  156.2470 C.2     1  UNL1        0.2462
     32 O         140.7752  136.7835  155.4015 O.2     1  UNL1       -0.2701
     33 H         143.0670  136.5450  158.0169 H       1  UNL1        0.1502
     34 C         142.4727  134.8751  155.8774 C.ar    1  UNL1        0.0533
     35 C         142.1414  134.2402  154.5594 C.ar    1  UNL1        0.0045
     36 C         142.7478  132.9190  154.1899 C.ar    1  UNL1        0.0001
     37 C         143.6856  132.2326  155.1384 C.ar    1  UNL1        0.0039
     38 C         144.0169  132.8675  156.4563 C.ar    1  UNL1        0.0716
     39 C         143.4105  134.1887  156.8259 C.ar    1  UNL1        0.0084
     40 C         144.9547  132.1812  157.4048 C.3     1  UNL1        0.4186
     41 F         145.8924  131.4949  158.3532 F       1  UNL1       -0.1659
     42 F         144.7008  133.2483  158.4280 F       1  UNL1       -0.1659
     43 F         145.2085  131.1141  156.3816 F       1  UNL1       -0.1659
@<TRIPOS>BOND
     1    25    26    2
     2    26    29    1
     3    29    30    1
     4    30    31   am
     5    31    32    2
     6    31    34    1
     7    34    35   ar
     8    35    36   ar
     9    36    37   ar
    10    37    38   ar
    11    38    40    1
    12    40    41    1
    13    40    42    1
    14    40    43    1
    15    38    39   ar
    16    26    27   am
    17    27     1    1
    18     1     2    1
    19     2     3    1
    20     5     3    1
    21     5     6    1
    22     6     7    1
    23     7     8    1
    24     8     9    1
    25     8    13    1
    26    13    14   ar
    27    14    15   ar
    28    15    16   ar
    29    16    19    1
    30    19    20    1
    31    20    21    1
    32    21    22    1
    33    21    23    1
    34    21    24    1
    35    16    17   ar
    36    17    18   ar
    37     8    10    1
    38    10    11    1
    39     3     4    1
    40    39    34   ar
    41     4     1    1
    42    11     5    1
    43    18    13   ar
    44    30    33    1
    45    27    28    1
    46     9    12    1
@<TRIPOS>MOLECULE
*****
 43 46 0 0 0
SMALL
GASTEIGER

@<TRIPOS>ATOM
      1 C         141.3263  138.7965  158.8900 C.3     1  UNL1        0.1035
      2 C         140.4458  138.8883  160.1009 C.3     1  UNL1        0.0933
      3 N         141.2676  140.0345  160.6116 N.3     1  UNL1       -0.2711
      4 C         142.1482  139.9426  159.4007 C.3     1  UNL1        0.0933
      5 C         141.2262  140.9099  161.8289 C.3     1  UNL1        0.0578
      6 C         140.8261  142.3501  161.7038 C.3     1  UNL1        0.0187
      7 C         140.7847  143.2255  162.9212 C.3     1  UNL1        0.0326
      8 C         141.1433  142.6607  164.2637 C.3     1  UNL1        0.1085
      9 O         140.8300  144.0753  164.6515 O.3     1  UNL1       -0.3826
     10 C         141.5434  141.2204  164.3888 C.3     1  UNL1        0.0326
     11 C         141.5848  140.3450  163.1715 C.3     1  UNL1        0.0187
     12 H         140.5741  144.5779  163.8623 H       1  UNL1        0.2107
     13 C         141.3931  142.5871  165.7409 C.ar    1  UNL1        0.0211
     14 C         142.7592  142.2401  166.2541 C.ar    1  UNL1        0.0043
     15 C         143.0090  142.1666  167.7313 C.ar    1  UNL1        0.0575
     16 C         141.8928  142.4401  168.6953 C.ar    1  UNL1        0.2251
     17 N         140.5268  142.7871  168.1821 N.ar    1  UNL1       -0.2104
     18 C         140.2768  142.8606  166.7048 C.ar    1  UNL1        0.1000
     19 O         142.1427  142.3665  170.1725 O.3     1  UNL1       -0.4509
     20 C         141.7687  141.1307  170.9359 C.3     1  UNL1        0.3095
     21 C         142.2037  139.7831  170.4413 C.3     1  UNL1        0.4381
     22 F         142.6389  138.4355  169.9466 F       1  UNL1       -0.1663
     23 F         140.7692  139.3559  170.3430 F       1  UNL1       -0.1663
     24 F         143.6383  140.2101  170.5395 F       1  UNL1       -0.1663
     25 O         139.0293  138.8009  156.9603 O.2     1  UNL1       -0.2733
     26 C         140.2192  137.9232  156.7078 C.2     1  UNL1        0.2426
     27 N         141.3677  137.9210  157.6726 N.am    1  UNL1       -0.3018
     28 H         142.1487  137.3449  157.5069 H       1  UNL1        0.1495
     29 C         140.2607  137.0478  155.4905 C.3     1  UNL1        0.1759
     30 N         140.5228  135.5776  155.6325 N.am    1  UNL1       -0.2931
     31 C         141.9296  135.0769  155.7743 C.2     1  UNL1        0.2462
     32 O         143.0743  136.0463  155.7741 O.2     1  UNL1       -0.2701
     33 H         139.7715  134.9414  155.6327 H       1  UNL1        0.1502
     34 C         142.1918  133.6068  155.9163 C.ar    1  UNL1        0.0533
     35 C         141.3309  132.6177  155.1880 C.ar    1  UNL1        0.0045
     36 C         141.5931  131.1477  155.3300 C.ar    1  UNL1        0.0001
     37 C         142.7161  130.6667  156.2003 C.ar    1  UNL1        0.0039
     38 C         143.5770  131.6559  156.9286 C.ar    1  UNL1        0.0716
     39 C         143.3149  133.1259  156.7866 C.ar    1  UNL1        0.0084
     40 C         144.7001  131.1749  157.7989 C.3     1  UNL1        0.4186
     41 F         145.8232  130.6940  158.6692 F       1  UNL1       -0.1659
     42 F         144.4201  129.7622  157.3796 F       1  UNL1       -0.1659
     43 F         144.9802  132.5877  158.2182 F       1  UNL1       -0.1659
@<TRIPOS>BOND
     1    25    26    2
     2    26    29    1
     3    29    30    1
     4    30    31   am
     5    31    32    2
     6    31    34    1
     7    34    35   ar
     8    35    36   ar
     9    36    37   ar
    10    37    38   ar
    11    38    40    1
    12    40    41    1
    13    40    42    1
    14    40    43    1
    15    38    39   ar
    16    26    27   am
    17    27     1    1
    18     1     2    1
    19     2     3    1
    20     5     3    1
    21     5     6    1
    22     6     7    1
    23     7     8    1
    24     8     9    1
    25     8    13    1
    26    13    14   ar
    27    14    15   ar
    28    15    16   ar
    29    16    19    1
    30    19    20    1
    31    20    21    1
    32    21    22    1
    33    21    23    1
    34    21    24    1
    35    16    17   ar
    36    17    18   ar
    37     8    10    1
    38    10    11    1
    39     3     4    1
    40    39    34   ar
    41     4     1    1
    42    11     5    1
    43    18    13   ar
    44    30    33    1
    45    27    28    1
    46     9    12    1
@<TRIPOS>MOLECULE
*****
 43 46 0 0 0
SMALL
GASTEIGER

@<TRIPOS>ATOM
      1 C         142.3686  138.1049  159.3632 C.3     1  UNL1        0.1035
      2 C         141.3443  139.1575  159.6679 C.3     1  UNL1        0.0933
      3 N         141.3899  138.7818  161.1193 N.3     1  UNL1       -0.2711
      4 C         142.4143  137.7292  160.8147 C.3     1  UNL1        0.0933
      5 C         140.6979  139.2604  162.3611 C.3     1  UNL1        0.0578
      6 C         139.1998  139.2530  162.4350 C.3     1  UNL1        0.0187
      7 C         138.5078  139.7316  163.6769 C.3     1  UNL1        0.0326
      8 C         139.3139  140.2177  164.8447 C.3     1  UNL1        0.1085
      9 O         137.9287  140.4012  165.3900 O.3     1  UNL1       -0.3826
     10 C         140.8121  140.2251  164.7707 C.3     1  UNL1        0.0326
     11 C         141.5041  139.7465  163.5290 C.3     1  UNL1        0.0187
     12 H         137.2800  140.1201  164.7259 H       1  UNL1        0.2107
     13 C         139.6390  140.7675  166.2019 C.ar    1  UNL1        0.0211
     14 C         139.4504  139.9146  167.4214 C.ar    1  UNL1        0.0043
     15 C         139.7755  140.4644  168.7787 C.ar    1  UNL1        0.0575
     16 C         140.2892  141.8670  168.9164 C.ar    1  UNL1        0.2251
     17 N         140.4778  142.7198  167.6970 N.ar    1  UNL1       -0.2104
     18 C         140.1527  142.1701  166.3396 C.ar    1  UNL1        0.1000
     19 O         140.6143  142.4167  170.2736 O.3     1  UNL1       -0.4509
     20 C         141.8854  142.0147  170.9610 C.3     1  UNL1        0.3095
     21 C         143.2097  142.3102  170.3216 C.3     1  UNL1        0.4381
     22 F         144.5341  142.6057  169.6823 F       1  UNL1       -0.1663
     23 F         143.0843  143.7490  170.7268 F       1  UNL1       -0.1663
     24 F         143.3352  140.8715  169.9165 F       1  UNL1       -0.1663
     25 O         140.7564  137.2626  156.9775 O.2     1  UNL1       -0.2733
     26 C         142.2545  137.2051  156.9285 C.2     1  UNL1        0.2426
     27 N         143.0606  137.6263  158.1213 N.am    1  UNL1       -0.3018
     28 H         144.0439  137.5886  158.0892 H       1  UNL1        0.1495
     29 C         142.9466  136.7266  155.6868 C.3     1  UNL1        0.1759
     30 N         143.5120  135.3383  155.6309 N.am    1  UNL1       -0.2931
     31 C         142.6133  134.1736  155.3382 C.2     1  UNL1        0.2462
     32 O         141.1491  134.3971  155.1012 O.2     1  UNL1       -0.2701
     33 H         144.4730  135.1916  155.7864 H       1  UNL1        0.1502
     34 C         143.1787  132.7854  155.2823 C.ar    1  UNL1        0.0533
     35 C         143.2213  132.0448  153.9786 C.ar    1  UNL1        0.0045
     36 C         143.7867  130.6566  153.9229 C.ar    1  UNL1        0.0001
     37 C         144.3096  130.0090  155.1708 C.ar    1  UNL1        0.0039
     38 C         144.2670  130.7496  156.4744 C.ar    1  UNL1        0.0716
     39 C         143.7016  132.1378  156.5302 C.ar    1  UNL1        0.0084
     40 C         144.7899  130.1020  157.7223 C.3     1  UNL1        0.4186
     41 F         145.3127  129.4544  158.9702 F       1  UNL1       -0.1659
     42 F         144.6018  128.7503  157.0997 F       1  UNL1       -0.1659
     43 F         144.9779  131.4536  158.3450 F       1  UNL1       -0.1659
@<TRIPOS>BOND
     1    25    26    2
     2    26    29    1
     3    29    30    1
     4    30    31   am
     5    31    32    2
     6    31    34    1
     7    34    35   ar
     8    35    36   ar
     9    36    37   ar
    10    37    38   ar
    11    38    40    1
    12    40    41    1
    13    40    42    1
    14    40    43    1
    15    38    39   ar
    16    26    27   am
    17    27     1    1
    18     1     2    1
    19     2     3    1
    20     5     3    1
    21     5     6    1
    22     6     7    1
    23     7     8    1
    24     8     9    1
    25     8    13    1
    26    13    14   ar
    27    14    15   ar
    28    15    16   ar
    29    16    19    1
    30    19    20    1
    31    20    21    1
    32    21    22    1
    33    21    23    1
    34    21    24    1
    35    16    17   ar
    36    17    18   ar
    37     8    10    1
    38    10    11    1
    39     3     4    1
    40    39    34   ar
    41     4     1    1
    42    11     5    1
    43    18    13   ar
    44    30    33    1
    45    27    28    1
    46     9    12    1
@<TRIPOS>MOLECULE
*****
 43 46 0 0 0
SMALL
GASTEIGER

@<TRIPOS>ATOM
      1 C         143.3689  139.2784  159.1066 C.3     1  UNL1        0.1035
      2 C         143.9191  138.9317  160.4583 C.3     1  UNL1        0.0933
      3 N         143.4345  140.2468  160.9928 N.3     1  UNL1       -0.2711
      4 C         142.8843  140.5935  159.6411 C.3     1  UNL1        0.0933
      5 C         143.4809  140.9316  162.3265 C.3     1  UNL1        0.0578
      6 C         144.6498  141.8015  162.6827 C.3     1  UNL1        0.0187
      7 C         144.6962  142.4863  164.0166 C.3     1  UNL1        0.0326
      8 C         143.5736  142.3012  164.9940 C.3     1  UNL1        0.1085
      9 O         144.4595  143.2173  165.7852 O.3     1  UNL1       -0.3826
     10 C         142.4046  141.4314  164.6378 C.3     1  UNL1        0.0326
     11 C         142.3583  140.7466  163.3041 C.3     1  UNL1        0.0187
     12 H         145.2502  143.4308  165.2655 H       1  UNL1        0.2107
     13 C         142.7587  142.4343  166.2463 C.ar    1  UNL1        0.0211
     14 C         141.2692  142.5890  166.1589 C.ar    1  UNL1        0.0043
     15 C         140.4542  142.7220  167.4112 C.ar    1  UNL1        0.0575
     16 C         141.1288  142.7005  168.7508 C.ar    1  UNL1        0.2251
     17 N         142.6181  142.5458  168.8382 N.ar    1  UNL1       -0.2104
     18 C         143.4332  142.4127  167.5859 C.ar    1  UNL1        0.1000
     19 O         140.3138  142.8336  170.0030 O.3     1  UNL1       -0.4509
     20 C         140.1041  141.6434  170.8916 C.3     1  UNL1        0.3095
     21 C         140.7187  140.3227  170.5338 C.3     1  UNL1        0.4381
     22 F         141.3333  139.0020  170.1761 F       1  UNL1       -0.1663
     23 F         139.5240  139.9960  169.6876 F       1  UNL1       -0.1663
     24 F         141.9133  140.6494  171.3800 F       1  UNL1       -0.1663
     25 O         145.0089  140.3272  156.8239 O.2     1  UNL1       -0.2733
     26 C         144.1425  139.1179  156.6315 C.2     1  UNL1        0.2426
     27 N         143.3226  138.5935  157.7728 N.am    1  UNL1       -0.3018
     28 H         142.7540  137.7998  157.6465 H       1  UNL1        0.1495
     29 C         144.0961  138.4331  155.2978 C.3     1  UNL1        0.1759
     30 N         144.2644  136.9449  155.2126 N.am    1  UNL1       -0.2931
     31 C         143.0839  136.0435  155.4215 C.2     1  UNL1        0.2462
     32 O         141.7350  136.6301  155.7156 O.2     1  UNL1       -0.2701
     33 H         145.1497  136.5599  155.0196 H       1  UNL1        0.1502
     34 C         143.2521  134.5553  155.3363 C.ar    1  UNL1        0.0533
     35 C         142.7040  133.8048  154.1590 C.ar    1  UNL1        0.0045
     36 C         142.8722  132.3167  154.0738 C.ar    1  UNL1        0.0001
     37 C         143.5887  131.5792  155.1659 C.ar    1  UNL1        0.0039
     38 C         144.1369  132.3298  156.3432 C.ar    1  UNL1        0.0716
     39 C         143.9686  133.8178  156.4284 C.ar    1  UNL1        0.0084
     40 C         144.8534  131.5923  157.4354 C.3     1  UNL1        0.4186
     41 F         145.5698  130.8548  158.5275 F       1  UNL1       -0.1659
     42 F         144.5082  130.2875  156.7808 F       1  UNL1       -0.1659
     43 F         145.1985  132.8970  158.0900 F       1  UNL1       -0.1659
@<TRIPOS>BOND
     1    25    26    2
     2    26    29    1
     3    29    30    1
     4    30    31   am
     5    31    32    2
     6    31    34    1
     7    34    35   ar
     8    35    36   ar
     9    36    37   ar
    10    37    38   ar
    11    38    40    1
    12    40    41    1
    13    40    42    1
    14    40    43    1
    15    38    39   ar
    16    26    27   am
    17    27     1    1
    18     1     2    1
    19     2     3    1
    20     5     3    1
    21     5     6    1
    22     6     7    1
    23     7     8    1
    24     8     9    1
    25     8    13    1
    26    13    14   ar
    27    14    15   ar
    28    15    16   ar
    29    16    19    1
    30    19    20    1
    31    20    21    1
    32    21    22    1
    33    21    23    1
    34    21    24    1
    35    16    17   ar
    36    17    18   ar
    37     8    10    1
    38    10    11    1
    39     3     4    1
    40    39    34   ar
    41     4     1    1
    42    11     5    1
    43    18    13   ar
    44    30    33    1
    45    27    28    1
    46     9    12    1
@<TRIPOS>MOLECULE
*****
 43 46 0 0 0
SMALL
GASTEIGER

@<TRIPOS>ATOM
      1 C         140.6761  138.9656  157.9926 C.3     1  UNL1        0.1035
      2 C         140.7732  140.1947  158.8468 C.3     1  UNL1        0.0933
      3 N         139.9725  139.5141  159.9172 N.3     1  UNL1       -0.2711
      4 C         139.8754  138.2850  159.0629 C.3     1  UNL1        0.0933
      5 C         139.4750  139.9020  161.2780 C.3     1  UNL1        0.0578
      6 C         138.2452  140.7502  161.4134 C.3     1  UNL1        0.0187
      7 C         137.7478  141.1380  162.7744 C.3     1  UNL1        0.0326
      8 C         138.4800  140.6777  163.9999 C.3     1  UNL1        0.1085
      9 O         137.3708  141.4604  164.6378 O.3     1  UNL1       -0.3826
     10 C         139.7098  139.8295  163.8645 C.3     1  UNL1        0.0326
     11 C         140.2073  139.4417  162.5036 C.3     1  UNL1        0.0187
     12 H         136.7976  141.8299  163.9480 H       1  UNL1        0.2107
     13 C         138.8271  140.4892  165.4469 C.ar    1  UNL1        0.0211
     14 C         139.7069  141.4850  166.1431 C.ar    1  UNL1        0.0043
     15 C         140.0539  141.2965  167.5901 C.ar    1  UNL1        0.0575
     16 C         139.5212  140.1122  168.3411 C.ar    1  UNL1        0.2251
     17 N         138.6414  139.1166  167.6450 N.ar    1  UNL1       -0.2104
     18 C         138.2943  139.3050  166.1979 C.ar    1  UNL1        0.1000
     19 O         139.8683  139.9238  169.7881 O.3     1  UNL1       -0.4509
     20 C         141.2529  139.4992  170.1782 C.3     1  UNL1        0.3095
     21 C         142.4189  140.4032  169.9079 C.3     1  UNL1        0.4381
     22 F         143.5849  141.3073  169.6376 F       1  UNL1       -0.1663
     23 F         142.8308  139.5291  168.7606 F       1  UNL1       -0.1663
     24 F         142.0071  141.2774  171.0551 F       1  UNL1       -0.1663
     25 O         143.6237  138.7447  157.4797 O.2     1  UNL1       -0.2733
     26 C         142.6474  138.4673  156.3752 C.2     1  UNL1        0.2426
     27 N         141.1736  138.5777  156.6316 N.am    1  UNL1       -0.3018
     28 H         140.5329  138.3957  155.9067 H       1  UNL1        0.1495
     29 C         143.1448  138.0795  155.0143 C.3     1  UNL1        0.1759
     30 N         143.3453  136.6325  154.6733 N.am    1  UNL1       -0.2931
     31 C         142.1601  135.7238  154.5334 C.2     1  UNL1        0.2462
     32 O         140.7745  136.2619  154.7345 O.2     1  UNL1       -0.2701
     33 H         144.2547  136.2793  154.5412 H       1  UNL1        0.1502
     34 C         142.3606  134.2768  154.1923 C.ar    1  UNL1        0.0533
     35 C         141.8668  133.7398  152.8817 C.ar    1  UNL1        0.0045
     36 C         142.0672  132.2930  152.5407 C.ar    1  UNL1        0.0001
     37 C         142.7615  131.3831  153.5103 C.ar    1  UNL1        0.0039
     38 C         143.2553  131.9201  154.8209 C.ar    1  UNL1        0.0716
     39 C         143.0549  133.3670  155.1619 C.ar    1  UNL1        0.0084
     40 C         143.9496  131.0102  155.7905 C.3     1  UNL1        0.4186
     41 F         144.6439  130.1004  156.7601 F       1  UNL1       -0.1659
     42 F         145.0078  130.7261  154.7661 F       1  UNL1       -0.1659
     43 F         142.8914  131.2944  156.8149 F       1  UNL1       -0.1659
@<TRIPOS>BOND
     1    25    26    2
     2    26    29    1
     3    29    30    1
     4    30    31   am
     5    31    32    2
     6    31    34    1
     7    34    35   ar
     8    35    36   ar
     9    36    37   ar
    10    37    38   ar
    11    38    40    1
    12    40    41    1
    13    40    42    1
    14    40    43    1
    15    38    39   ar
    16    26    27   am
    17    27     1    1
    18     1     2    1
    19     2     3    1
    20     5     3    1
    21     5     6    1
    22     6     7    1
    23     7     8    1
    24     8     9    1
    25     8    13    1
    26    13    14   ar
    27    14    15   ar
    28    15    16   ar
    29    16    19    1
    30    19    20    1
    31    20    21    1
    32    21    22    1
    33    21    23    1
    34    21    24    1
    35    16    17   ar
    36    17    18   ar
    37     8    10    1
    38    10    11    1
    39     3     4    1
    40    39    34   ar
    41     4     1    1
    42    11     5    1
    43    18    13   ar
    44    30    33    1
    45    27    28    1
    46     9    12    1
