@<TRIPOS>MOLECULE
*****
 37 41 0 0 0
SMALL
GASTEIGER

@<TRIPOS>ATOM
      1 N         141.1477  138.2787  162.0201 N.3     1  UNL1       -0.2720
      2 C         139.8102  137.6824  162.3453 C.3     1  UNL1        0.0768
      3 C         139.0064  137.8194  163.6044 C.3     1  UNL1        0.0434
      4 C         139.3415  138.5864  164.8490 C.ar    1  UNL1       -0.0231
      5 C         138.2582  138.4603  165.8789 C.ar    1  UNL1       -0.0013
      6 C         138.3964  139.1538  167.2017 C.ar    1  UNL1        0.0388
      7 C         139.6181  139.9734  167.4949 C.ar    1  UNL1        0.1643
      8 O         140.0300  140.7652  168.7004 O.2     1  UNL1       -0.4335
      9 C         141.3680  141.3808  168.4156 C.ar    1  UNL1        0.2767
     10 N         141.7829  140.9693  167.0341 N.ar    1  UNL1       -0.2076
     11 C         140.7014  140.0995  166.4650 C.ar    1  UNL1        0.1145
     12 C         140.5631  139.4061  165.1422 C.ar    1  UNL1       -0.0039
     13 C         141.7514  139.6610  164.2629 C.3     1  UNL1        0.0450
     14 C         142.0115  139.1592  162.8734 C.3     1  UNL1        0.0769
     15 C         142.1531  142.2543  169.3485 C.3     1  UNL1        0.4148
     16 F         143.2535  142.3491  168.3337 F       1  UNL1       -0.1851
     17 F         141.0526  142.1595  170.3635 F       1  UNL1       -0.1851
     18 C         142.9382  143.1279  170.2816 C.3     1  UNL1        0.4635
     19 F         143.7234  144.0014  171.2146 F       1  UNL1       -0.1646
     20 F         141.7771  144.0730  170.3738 F       1  UNL1       -0.1646
     21 F         144.0994  142.1827  170.1893 F       1  UNL1       -0.1646
     22 C         141.6932  137.9511  160.6617 C.3     1  UNL1        0.0730
     23 C         141.4860  138.9026  159.5208 C.3     1  UNL1        0.0294
     24 C         140.4532  138.6053  158.4744 C.3     1  UNL1        0.0666
     25 S         139.2393  139.4775  158.3496 S.3     1  UNL1       -0.0756
     26 C         138.4145  141.8929  161.2739 C.ar    1  UNL1        0.2029
     27 N         137.4175  140.7977  161.5124 N.ar    1  UNL1       -0.1250
     28 N         137.6051  139.7597  160.4460 N.ar    1  UNL1       -0.1220
     29 C         138.7181  140.2132  159.5484 C.ar    1  UNL1        0.1933
     30 N         139.2182  141.5315  160.0601 N.ar    1  UNL1       -0.2860
     31 C         140.3275  142.3457  159.4627 C.3     1  UNL1        0.1341
     32 C         138.0180  142.1032  164.5063 C.3     1  UNL1        0.0556
     33 C         138.3966  143.2284  163.5893 C.ar    1  UNL1        0.1001
     34 N         138.6594  144.6477  163.9971 N.ar    1  UNL1       -0.2085
     35 C         139.0040  145.4282  162.7633 C.ar    1  UNL1        0.2849
     36 O         138.9542  144.4912  161.5931 O.2     1  UNL1       -0.4283
     37 C         138.5788  143.1316  162.1035 C.ar    1  UNL1        0.1964
@<TRIPOS>BOND
     1    32    33    1
     2    33    34   ar
     3    34    35   ar
     4    35    36   ar
     5    36    37   ar
     6    37    26    1
     7    26    27   ar
     8    27    28   ar
     9    28    29   ar
    10    29    25    1
    11    25    24    1
    12    24    23    1
    13    23    22    1
    14    22     1    1
    15     1     2    1
    16     2     3    1
    17     3     4    1
    18     4     5   ar
    19     5     6   ar
    20     6     7   ar
    21     7     8   ar
    22     8     9   ar
    23     9    15    1
    24    15    16    1
    25    15    17    1
    26    15    18    1
    27    18    19    1
    28    18    20    1
    29    18    21    1
    30     9    10   ar
    31    10    11   ar
    32    11    12   ar
    33    12    13    1
    34    13    14    1
    35    29    30   ar
    36    30    31    1
    37    37    33   ar
    38    30    26   ar
    39    14     1    1
    40    12     4   ar
    41    11     7   ar
@<TRIPOS>MOLECULE
*****
 37 41 0 0 0
SMALL
GASTEIGER

@<TRIPOS>ATOM
      1 N         142.2647  138.1899  161.8721 N.3     1  UNL1       -0.2720
      2 C         140.8750  137.6415  162.0078 C.3     1  UNL1        0.0768
      3 C         139.9023  137.8269  163.1346 C.3     1  UNL1        0.0434
      4 C         140.0790  138.6064  164.4038 C.ar    1  UNL1       -0.0231
      5 C         138.8543  138.5332  165.2668 C.ar    1  UNL1       -0.0013
      6 C         138.8225  139.2467  166.5859 C.ar    1  UNL1        0.0388
      7 C         140.0155  140.0334  167.0420 C.ar    1  UNL1        0.1643
      8 O         140.2746  140.8345  168.2834 O.2     1  UNL1       -0.4335
      9 C         141.6596  141.4028  168.1876 C.ar    1  UNL1        0.2767
     10 N         142.2563  140.9529  166.8870 N.ar    1  UNL1       -0.2076
     11 C         141.2402  140.1065  166.1790 C.ar    1  UNL1        0.1145
     12 C         141.2720  139.3931  164.8599 C.ar    1  UNL1       -0.0039
     13 C         142.5829  139.5945  164.1593 C.3     1  UNL1        0.0450
     14 C         143.0247  139.0590  162.8296 C.3     1  UNL1        0.0769
     15 C         142.3300  142.2689  169.2125 C.3     1  UNL1        0.4148
     16 F         143.4586  141.2852  169.3054 F       1  UNL1       -0.1851
     17 F         141.2014  143.2526  169.1194 F       1  UNL1       -0.1851
     18 C         143.0004  143.1351  170.2373 C.3     1  UNL1        0.4635
     19 F         143.6708  144.0012  171.2622 F       1  UNL1       -0.1646
     20 F         141.7733  143.9942  170.3139 F       1  UNL1       -0.1646
     21 F         144.2276  142.2758  170.1607 F       1  UNL1       -0.1646
     22 C         142.9900  137.8202  160.6123 C.3     1  UNL1        0.0730
     23 C         142.8890  138.7012  159.4025 C.3     1  UNL1        0.0294
     24 C         143.7141  139.9507  159.3136 C.3     1  UNL1        0.0666
     25 S         143.0538  141.2667  159.0268 S.3     1  UNL1       -0.0756
     26 C         141.8238  143.3939  162.0314 C.ar    1  UNL1        0.2029
     27 N         143.0900  144.1112  161.6674 N.ar    1  UNL1       -0.1250
     28 N         143.7048  143.4016  160.4977 N.ar    1  UNL1       -0.1220
     29 C         142.8187  142.2458  160.1386 C.ar    1  UNL1        0.1933
     30 N         141.6562  142.2411  161.0865 N.ar    1  UNL1       -0.2860
     31 C         140.5246  141.2563  161.0890 C.3     1  UNL1        0.1341
     32 C         139.7588  145.9208  162.0414 C.3     1  UNL1        0.0556
     33 C         139.9402  144.9260  163.1493 C.ar    1  UNL1        0.1001
     34 N         139.2042  144.9180  164.4563 N.ar    1  UNL1       -0.2085
     35 C         139.6986  143.7515  165.2594 C.ar    1  UNL1        0.2849
     36 O         140.7400  143.0387  164.4488 O.2     1  UNL1       -0.4283
     37 C         140.8894  143.7645  163.1446 C.ar    1  UNL1        0.1964
@<TRIPOS>BOND
     1    32    33    1
     2    33    34   ar
     3    34    35   ar
     4    35    36   ar
     5    36    37   ar
     6    37    26    1
     7    26    27   ar
     8    27    28   ar
     9    28    29   ar
    10    29    25    1
    11    25    24    1
    12    24    23    1
    13    23    22    1
    14    22     1    1
    15     1     2    1
    16     2     3    1
    17     3     4    1
    18     4     5   ar
    19     5     6   ar
    20     6     7   ar
    21     7     8   ar
    22     8     9   ar
    23     9    15    1
    24    15    16    1
    25    15    17    1
    26    15    18    1
    27    18    19    1
    28    18    20    1
    29    18    21    1
    30     9    10   ar
    31    10    11   ar
    32    11    12   ar
    33    12    13    1
    34    13    14    1
    35    29    30   ar
    36    30    31    1
    37    37    33   ar
    38    30    26   ar
    39    14     1    1
    40    12     4   ar
    41    11     7   ar
@<TRIPOS>MOLECULE
*****
 37 41 0 0 0
SMALL
GASTEIGER

@<TRIPOS>ATOM
      1 N         140.1601  144.0068  158.9124 N.3     1  UNL1       -0.2720
      2 C         140.3671  145.2770  159.6830 C.3     1  UNL1        0.0768
      3 C         140.2658  145.5001  161.1629 C.3     1  UNL1        0.0434
      4 C         139.9326  144.5082  162.2375 C.ar    1  UNL1       -0.0231
      5 C         139.9376  145.1478  163.5944 C.ar    1  UNL1       -0.0013
      6 C         139.6284  144.3274  164.8114 C.ar    1  UNL1        0.0388
      7 C         139.3141  142.8673  164.6718 C.ar    1  UNL1        0.1643
      8 O         138.9734  141.8128  165.6826 O.2     1  UNL1       -0.4335
      9 C         138.7577  140.5214  164.9506 C.ar    1  UNL1        0.2767
     10 N         138.9652  140.7778  163.4872 N.ar    1  UNL1       -0.2076
     11 C         139.3091  142.2277  163.3149 C.ar    1  UNL1        0.1145
     12 C         139.6183  143.0481  162.0979 C.ar    1  UNL1       -0.0039
     13 C         139.5597  142.2194  160.8489 C.3     1  UNL1        0.0450
     14 C         139.8008  142.6461  159.4313 C.3     1  UNL1        0.0769
     15 C         138.3978  139.2048  165.5725 C.3     1  UNL1        0.4148
     16 F         138.3512  138.5748  164.2120 F       1  UNL1       -0.1851
     17 F         138.4445  139.8348  166.9331 F       1  UNL1       -0.1851
     18 C         138.0379  137.8881  166.1946 C.3     1  UNL1        0.4635
     19 F         137.6780  136.5715  166.8166 F       1  UNL1       -0.1646
     20 F         137.2184  138.6009  167.2292 F       1  UNL1       -0.1646
     21 F         138.8574  137.1753  165.1600 F       1  UNL1       -0.1646
     22 C         140.3358  144.1112  157.4263 C.3     1  UNL1        0.0730
     23 C         141.7106  144.0636  156.8284 C.3     1  UNL1        0.0294
     24 C         142.5987  142.8819  157.0832 C.3     1  UNL1        0.0666
     25 S         143.7240  142.9883  158.0692 S.3     1  UNL1       -0.0756
     26 C         143.1382  141.3663  161.5466 C.ar    1  UNL1        0.2029
     27 N         143.1474  142.8232  161.9040 N.ar    1  UNL1       -0.1250
     28 N         143.3680  143.6080  160.6449 N.ar    1  UNL1       -0.1220
     29 C         143.4951  142.6363  159.5093 C.ar    1  UNL1        0.1933
     30 N         143.3531  141.2510  160.0665 N.ar    1  UNL1       -0.2860
     31 C         143.4151  139.9742  159.2816 C.3     1  UNL1        0.1341
     32 C         145.1886  140.4991  163.9326 C.3     1  UNL1        0.0556
     33 C         143.8901  139.8267  163.5982 C.ar    1  UNL1        0.1001
     34 N         143.3061  138.6378  164.3019 N.ar    1  UNL1       -0.2085
     35 C         142.0026  138.3016  163.6400 C.ar    1  UNL1        0.2849
     36 O         141.7811  139.2827  162.5273 O.2     1  UNL1       -0.4283
     37 C         142.9476  140.2254  162.5014 C.ar    1  UNL1        0.1964
@<TRIPOS>BOND
     1    32    33    1
     2    33    34   ar
     3    34    35   ar
     4    35    36   ar
     5    36    37   ar
     6    37    26    1
     7    26    27   ar
     8    27    28   ar
     9    28    29   ar
    10    29    25    1
    11    25    24    1
    12    24    23    1
    13    23    22    1
    14    22     1    1
    15     1     2    1
    16     2     3    1
    17     3     4    1
    18     4     5   ar
    19     5     6   ar
    20     6     7   ar
    21     7     8   ar
    22     8     9   ar
    23     9    15    1
    24    15    16    1
    25    15    17    1
    26    15    18    1
    27    18    19    1
    28    18    20    1
    29    18    21    1
    30     9    10   ar
    31    10    11   ar
    32    11    12   ar
    33    12    13    1
    34    13    14    1
    35    29    30   ar
    36    30    31    1
    37    37    33   ar
    38    30    26   ar
    39    14     1    1
    40    12     4   ar
    41    11     7   ar
@<TRIPOS>MOLECULE
*****
 37 41 0 0 0
SMALL
GASTEIGER

@<TRIPOS>ATOM
      1 N         142.3298  143.8720  159.8959 N.3     1  UNL1       -0.2720
      2 C         141.0897  144.7125  159.9734 C.3     1  UNL1        0.0768
      3 C         140.2098  144.9741  161.1598 C.3     1  UNL1        0.0434
      4 C         140.3527  144.4598  162.5615 C.ar    1  UNL1       -0.0231
      5 C         139.2512  144.9652  163.4456 C.ar    1  UNL1       -0.0013
      6 C         139.2078  144.5677  164.8913 C.ar    1  UNL1        0.0388
      7 C         140.2658  143.6648  165.4531 C.ar    1  UNL1        0.1643
      8 O         140.4825  143.1070  166.8285 O.2     1  UNL1       -0.4335
      9 C         141.7180  142.2569  166.7946 C.ar    1  UNL1        0.2767
     10 N         142.2648  142.2894  165.3981 N.ar    1  UNL1       -0.2076
     11 C         141.3673  143.1595  164.5690 C.ar    1  UNL1        0.1145
     12 C         141.4107  143.5570  163.1233 C.ar    1  UNL1       -0.0039
     13 C         142.5871  142.9455  162.4219 C.3     1  UNL1        0.0450
     14 C         142.9961  143.0857  160.9856 C.3     1  UNL1        0.0769
     15 C         142.3037  141.5062  167.9535 C.3     1  UNL1        0.4148
     16 F         143.2863  142.6173  168.1766 F       1  UNL1       -0.1851
     17 F         141.3211  140.3950  167.7304 F       1  UNL1       -0.1851
     18 C         142.8895  140.7553  169.1125 C.3     1  UNL1        0.4635
     19 F         143.4751  140.0044  170.2714 F       1  UNL1       -0.1646
     20 F         143.5670  142.0085  169.5820 F       1  UNL1       -0.1646
     21 F         142.2119  139.5021  168.6429 F       1  UNL1       -0.1646
     22 C         142.9907  143.8098  158.5508 C.3     1  UNL1        0.0730
     23 C         142.9504  142.5400  157.7534 C.3     1  UNL1        0.0294
     24 C         141.6937  141.7223  157.7081 C.3     1  UNL1        0.0666
     25 S         141.7444  140.2523  158.0021 S.3     1  UNL1       -0.0756
     26 C         143.0767  139.1221  161.4681 C.ar    1  UNL1        0.2029
     27 N         144.2643  138.8417  160.5955 N.ar    1  UNL1       -0.1250
     28 N         143.9096  139.2309  159.1910 N.ar    1  UNL1       -0.1220
     29 C         142.5030  139.7519  159.1955 C.ar    1  UNL1        0.1933
     30 N         141.9883  139.6847  160.6027 N.ar    1  UNL1       -0.2860
     31 C         140.6245  140.1061  161.0638 C.3     1  UNL1        0.1341
     32 C         145.0677  140.3733  163.7309 C.3     1  UNL1        0.0556
     33 C         143.9077  139.4573  163.9865 C.ar    1  UNL1        0.1001
     34 N         143.4592  138.9555  165.3270 N.ar    1  UNL1       -0.2085
     35 C         142.2669  138.0704  165.1154 C.ar    1  UNL1        0.2849
     36 O         141.9785  138.0250  163.6441 O.2     1  UNL1       -0.4283
     37 C         142.9926  138.8822  162.9463 C.ar    1  UNL1        0.1964
@<TRIPOS>BOND
     1    32    33    1
     2    33    34   ar
     3    34    35   ar
     4    35    36   ar
     5    36    37   ar
     6    37    26    1
     7    26    27   ar
     8    27    28   ar
     9    28    29   ar
    10    29    25    1
    11    25    24    1
    12    24    23    1
    13    23    22    1
    14    22     1    1
    15     1     2    1
    16     2     3    1
    17     3     4    1
    18     4     5   ar
    19     5     6   ar
    20     6     7   ar
    21     7     8   ar
    22     8     9   ar
    23     9    15    1
    24    15    16    1
    25    15    17    1
    26    15    18    1
    27    18    19    1
    28    18    20    1
    29    18    21    1
    30     9    10   ar
    31    10    11   ar
    32    11    12   ar
    33    12    13    1
    34    13    14    1
    35    29    30   ar
    36    30    31    1
    37    37    33   ar
    38    30    26   ar
    39    14     1    1
    40    12     4   ar
    41    11     7   ar
@<TRIPOS>MOLECULE
*****
 37 41 0 0 0
SMALL
GASTEIGER

@<TRIPOS>ATOM
      1 N         143.5413  140.5522  160.5890 N.3     1  UNL1       -0.2720
      2 C         144.6236  141.5542  160.8628 C.3     1  UNL1        0.0768
      3 C         144.9080  142.3001  162.1328 C.3     1  UNL1        0.0434
      4 C         144.1805  142.2283  163.4424 C.ar    1  UNL1       -0.0231
      5 C         144.7934  143.1435  164.4607 C.ar    1  UNL1       -0.0013
      6 C         144.2147  143.2233  165.8423 C.ar    1  UNL1        0.0388
      7 C         143.0230  142.3879  166.2057 C.ar    1  UNL1        0.1643
      8 O         142.2403  142.2557  167.4784 O.2     1  UNL1       -0.4335
      9 C         141.1436  141.2588  167.2468 C.ar    1  UNL1        0.2767
     10 N         141.2485  140.7749  165.8309 N.ar    1  UNL1       -0.2076
     11 C         142.4101  141.4726  165.1874 C.ar    1  UNL1        0.1145
     12 C         142.9888  141.3929  163.8058 C.ar    1  UNL1       -0.0039
     13 C         142.2304  140.4229  162.9492 C.3     1  UNL1        0.0450
     14 C         142.4764  140.0488  161.5175 C.3     1  UNL1        0.0769
     15 C         140.1215  140.8225  168.2542 C.3     1  UNL1        0.4148
     16 F         140.4809  141.9901  169.1245 F       1  UNL1       -0.1851
     17 F         139.7621  139.6549  167.3838 F       1  UNL1       -0.1851
     18 C         139.0993  140.3861  169.2615 C.3     1  UNL1        0.4635
     19 F         138.0771  139.9496  170.2688 F       1  UNL1       -0.1646
     20 F         139.6303  141.3942  170.2371 F       1  UNL1       -0.1646
     21 F         138.5684  139.3779  168.2859 F       1  UNL1       -0.1646
     22 C         143.5217  139.9778  159.2035 C.3     1  UNL1        0.0730
     23 C         144.2526  140.6726  158.0931 C.3     1  UNL1        0.0294
     24 C         143.6750  141.9113  157.4748 C.3     1  UNL1        0.0666
     25 S         142.2241  142.2391  157.6674 S.3     1  UNL1       -0.0756
     26 C         140.6442  144.0595  160.7098 C.ar    1  UNL1        0.2029
     27 N         141.6666  145.0649  160.2692 N.ar    1  UNL1       -0.1250
     28 N         142.3827  144.5053  159.0759 N.ar    1  UNL1       -0.1220
     29 C         141.8031  143.1541  158.7790 C.ar    1  UNL1        0.1933
     30 N         140.7287  142.8786  159.7887 N.ar    1  UNL1       -0.2860
     31 C         139.8865  141.6396  159.8643 C.3     1  UNL1        0.1341
     32 C         141.4680  144.8899  163.7564 C.3     1  UNL1        0.0556
     33 C         140.0815  144.5905  163.2684 C.ar    1  UNL1        0.1001
     34 N         138.8302  144.6202  164.0950 N.ar    1  UNL1       -0.2085
     35 C         137.6783  144.2569  163.2056 C.ar    1  UNL1        0.2849
     36 O         138.2176  144.0026  161.8292 O.2     1  UNL1       -0.4283
     37 C         139.7029  144.2088  161.8679 C.ar    1  UNL1        0.1964
@<TRIPOS>BOND
     1    32    33    1
     2    33    34   ar
     3    34    35   ar
     4    35    36   ar
     5    36    37   ar
     6    37    26    1
     7    26    27   ar
     8    27    28   ar
     9    28    29   ar
    10    29    25    1
    11    25    24    1
    12    24    23    1
    13    23    22    1
    14    22     1    1
    15     1     2    1
    16     2     3    1
    17     3     4    1
    18     4     5   ar
    19     5     6   ar
    20     6     7   ar
    21     7     8   ar
    22     8     9   ar
    23     9    15    1
    24    15    16    1
    25    15    17    1
    26    15    18    1
    27    18    19    1
    28    18    20    1
    29    18    21    1
    30     9    10   ar
    31    10    11   ar
    32    11    12   ar
    33    12    13    1
    34    13    14    1
    35    29    30   ar
    36    30    31    1
    37    37    33   ar
    38    30    26   ar
    39    14     1    1
    40    12     4   ar
    41    11     7   ar
@<TRIPOS>MOLECULE
*****
 37 41 0 0 0
SMALL
GASTEIGER

@<TRIPOS>ATOM
      1 N         141.3061  139.6112  165.6262 N.3     1  UNL1       -0.2720
      2 C         139.9993  139.5988  166.3627 C.3     1  UNL1        0.0768
      3 C         139.6533  140.2589  167.6646 C.3     1  UNL1        0.0434
      4 C         140.5283  141.0943  168.5512 C.ar    1  UNL1       -0.0231
      5 C         139.7864  141.5652  169.7669 C.ar    1  UNL1       -0.0013
      6 C         140.4817  142.4178  170.7864 C.ar    1  UNL1        0.0388
      7 C         141.9190  142.7996  170.5904 C.ar    1  UNL1        0.1643
      8 O         142.8607  143.6228  171.4182 O.2     1  UNL1       -0.4335
      9 C         144.1848  143.6608  170.7143 C.ar    1  UNL1        0.2767
     10 N         144.0613  142.8609  169.4513 N.ar    1  UNL1       -0.2076
     11 C         142.6610  142.3287  169.3748 C.ar    1  UNL1        0.1145
     12 C         141.9657  141.4760  168.3552 C.ar    1  UNL1       -0.0039
     13 C         142.8829  141.1166  167.2240 C.3     1  UNL1        0.0450
     14 C         142.5892  140.2867  166.0095 C.3     1  UNL1        0.0769
     15 C         145.4160  144.3734  171.1897 C.3     1  UNL1        0.4148
     16 F         146.2557  143.2044  170.7675 F       1  UNL1       -0.1851
     17 F         144.5763  145.5425  171.6119 F       1  UNL1       -0.1851
     18 C         146.6473  145.0862  171.6652 C.3     1  UNL1        0.4635
     19 F         147.8784  145.7990  172.1407 F       1  UNL1       -0.1646
     20 F         147.4245  144.5074  170.5203 F       1  UNL1       -0.1646
     21 F         145.8700  145.6650  172.8101 F       1  UNL1       -0.1646
     22 C         141.3329  138.8471  164.3357 C.3     1  UNL1        0.0730
     23 C         140.4769  137.6267  164.1687 C.3     1  UNL1        0.0294
     24 C         139.2379  137.6893  163.3254 C.3     1  UNL1        0.0666
     25 S         139.2294  138.5011  162.0641 S.3     1  UNL1       -0.0756
     26 C         138.8019  142.3565  161.9265 C.ar    1  UNL1        0.2029
     27 N         137.4362  141.9292  162.3764 N.ar    1  UNL1       -0.1250
     28 N         137.4302  140.4330  162.4828 N.ar    1  UNL1       -0.1220
     29 C         138.7921  139.9355  162.0985 C.ar    1  UNL1        0.1933
     30 N         139.6398  141.1242  161.7547 N.ar    1  UNL1       -0.2860
     31 C         141.0738  141.0873  161.3161 C.3     1  UNL1        0.1341
     32 C         139.0616  144.6918  164.1910 C.3     1  UNL1        0.0556
     33 C         139.3701  144.8415  162.7307 C.ar    1  UNL1        0.1001
     34 N         139.8522  146.0908  162.0550 N.ar    1  UNL1       -0.2085
     35 C         140.0308  145.7895  160.5964 C.ar    1  UNL1        0.2849
     36 O         139.6591  144.3539  160.3708 O.2     1  UNL1       -0.4283
     37 C         139.2507  143.7679  161.6898 C.ar    1  UNL1        0.1964
@<TRIPOS>BOND
     1    32    33    1
     2    33    34   ar
     3    34    35   ar
     4    35    36   ar
     5    36    37   ar
     6    37    26    1
     7    26    27   ar
     8    27    28   ar
     9    28    29   ar
    10    29    25    1
    11    25    24    1
    12    24    23    1
    13    23    22    1
    14    22     1    1
    15     1     2    1
    16     2     3    1
    17     3     4    1
    18     4     5   ar
    19     5     6   ar
    20     6     7   ar
    21     7     8   ar
    22     8     9   ar
    23     9    15    1
    24    15    16    1
    25    15    17    1
    26    15    18    1
    27    18    19    1
    28    18    20    1
    29    18    21    1
    30     9    10   ar
    31    10    11   ar
    32    11    12   ar
    33    12    13    1
    34    13    14    1
    35    29    30   ar
    36    30    31    1
    37    37    33   ar
    38    30    26   ar
    39    14     1    1
    40    12     4   ar
    41    11     7   ar
@<TRIPOS>MOLECULE
*****
 37 41 0 0 0
SMALL
GASTEIGER

@<TRIPOS>ATOM
      1 N         142.8185  141.7187  159.0755 N.3     1  UNL1       -0.2720
      2 C         143.6689  142.7307  159.7846 C.3     1  UNL1        0.0768
      3 C         143.7222  143.0449  161.2504 C.3     1  UNL1        0.0434
      4 C         142.9385  142.4249  162.3689 C.ar    1  UNL1       -0.0231
      5 C         143.2975  143.0328  163.6924 C.ar    1  UNL1       -0.0013
      6 C         142.6258  142.5533  164.9450 C.ar    1  UNL1        0.0388
      7 C         141.5951  141.4658  164.8741 C.ar    1  UNL1        0.1643
      8 O         140.7713  140.7933  165.9319 O.2     1  UNL1       -0.4335
      9 C         139.9031  139.7697  165.2622 C.ar    1  UNL1        0.2767
     10 N         140.1903  139.8096  163.7905 N.ar    1  UNL1       -0.2076
     11 C         141.2361  140.8579  163.5506 C.ar    1  UNL1        0.1145
     12 C         141.9077  141.3374  162.2981 C.ar    1  UNL1       -0.0039
     13 C         141.4062  140.6014  161.0911 C.3     1  UNL1        0.0450
     14 C         141.8116  140.7712  159.6569 C.3     1  UNL1        0.0769
     15 C         138.9202  138.8650  165.9444 C.3     1  UNL1        0.4148
     16 F         138.7400  139.8813  167.0327 F       1  UNL1       -0.1851
     17 F         139.1004  137.8485  164.8561 F       1  UNL1       -0.1851
     18 C         137.9373  137.9601  166.6266 C.3     1  UNL1        0.4635
     19 F         136.9545  137.0553  167.3086 F       1  UNL1       -0.1646
     20 F         137.5493  139.0772  167.5493 F       1  UNL1       -0.1646
     21 F         138.3253  136.8430  165.7037 F       1  UNL1       -0.1646
     22 C         142.9990  141.6446  157.5882 C.3     1  UNL1        0.0730
     23 C         142.7505  142.8573  156.7412 C.3     1  UNL1        0.0294
     24 C         141.3494  143.3485  156.5274 C.3     1  UNL1        0.0666
     25 S         140.8767  144.5921  157.2203 S.3     1  UNL1       -0.0756
     26 C         139.7534  144.0337  160.8934 C.ar    1  UNL1        0.2029
     27 N         140.7981  145.0960  161.0681 N.ar    1  UNL1       -0.1250
     28 N         141.3459  145.4344  159.7134 N.ar    1  UNL1       -0.1220
     29 C         140.6400  144.5813  158.7015 C.ar    1  UNL1        0.1933
     30 N         139.6558  143.7157  159.4308 N.ar    1  UNL1       -0.2860
     31 C         138.7354  142.7088  158.8070 C.3     1  UNL1        0.1341
     32 C         139.8549  144.8329  164.0558 C.3     1  UNL1        0.0556
     33 C         138.9945  143.7681  163.4427 C.ar    1  UNL1        0.1001
     34 N         138.0298  142.8836  164.1755 N.ar    1  UNL1       -0.2085
     35 C         137.3869  141.9697  163.1748 C.ar    1  UNL1        0.2849
     36 O         137.9543  142.2892  161.8235 O.2     1  UNL1       -0.4283
     37 C         138.9479  143.4007  161.9890 C.ar    1  UNL1        0.1964
@<TRIPOS>BOND
     1    32    33    1
     2    33    34   ar
     3    34    35   ar
     4    35    36   ar
     5    36    37   ar
     6    37    26    1
     7    26    27   ar
     8    27    28   ar
     9    28    29   ar
    10    29    25    1
    11    25    24    1
    12    24    23    1
    13    23    22    1
    14    22     1    1
    15     1     2    1
    16     2     3    1
    17     3     4    1
    18     4     5   ar
    19     5     6   ar
    20     6     7   ar
    21     7     8   ar
    22     8     9   ar
    23     9    15    1
    24    15    16    1
    25    15    17    1
    26    15    18    1
    27    18    19    1
    28    18    20    1
    29    18    21    1
    30     9    10   ar
    31    10    11   ar
    32    11    12   ar
    33    12    13    1
    34    13    14    1
    35    29    30   ar
    36    30    31    1
    37    37    33   ar
    38    30    26   ar
    39    14     1    1
    40    12     4   ar
    41    11     7   ar
@<TRIPOS>MOLECULE
*****
 37 41 0 0 0
SMALL
GASTEIGER

@<TRIPOS>ATOM
      1 N         142.3918  142.3829  160.7179 N.3     1  UNL1       -0.2720
      2 C         143.0015  141.0140  160.6496 C.3     1  UNL1        0.0768
      3 C         143.1571  140.0036  161.7474 C.3     1  UNL1        0.0434
      4 C         142.7415  140.1126  163.1844 C.ar    1  UNL1       -0.0231
      5 C         143.0835  138.8686  163.9496 C.ar    1  UNL1       -0.0013
      6 C         142.7516  138.7707  165.4091 C.ar    1  UNL1        0.0388
      7 C         142.0776  139.9169  166.1036 C.ar    1  UNL1        0.1643
      8 O         141.6310  140.1081  167.5227 O.2     1  UNL1       -0.4335
      9 C         141.0130  141.4703  167.6346 C.ar    1  UNL1        0.2767
     10 N         141.0777  142.1210  166.2846 N.ar    1  UNL1       -0.2076
     11 C         141.7357  141.1609  165.3383 C.ar    1  UNL1        0.1145
     12 C         142.0676  141.2588  163.8788 C.ar    1  UNL1       -0.0039
     13 C         141.6429  142.5791  163.3075 C.3     1  UNL1        0.0450
     14 C         141.7872  143.0793  161.9008 C.3     1  UNL1        0.0769
     15 C         140.4323  142.0756  168.8781 C.3     1  UNL1        0.4148
     16 F         139.3894  140.9982  168.9155 F       1  UNL1       -0.1851
     17 F         141.4753  143.1530  168.8407 F       1  UNL1       -0.1851
     18 C         139.8517  142.6810  170.1217 C.3     1  UNL1        0.4635
     19 F         139.2711  143.2864  171.3652 F       1  UNL1       -0.1646
     20 F         138.8786  141.5438  170.2209 F       1  UNL1       -0.1646
     21 F         140.8249  143.8181  170.0224 F       1  UNL1       -0.1646
     22 C         142.3860  143.1576  159.4334 C.3     1  UNL1        0.0730
     23 C         141.2664  142.9746  158.4523 C.3     1  UNL1        0.0294
     24 C         139.9103  143.5441  158.7470 C.3     1  UNL1        0.0666
     25 S         138.7667  142.6289  159.0704 S.3     1  UNL1       -0.0756
     26 C         138.9722  140.1585  162.0571 C.ar    1  UNL1        0.2029
     27 N         139.5612  139.3296  160.9542 N.ar    1  UNL1       -0.1250
     28 N         139.5559  140.1542  159.7012 N.ar    1  UNL1       -0.1220
     29 C         138.9636  141.4927  160.0296 C.ar    1  UNL1        0.1933
     30 N         138.6029  141.4952  161.4856 N.ar    1  UNL1       -0.2860
     31 C         137.9819  142.6346  162.2381 C.3     1  UNL1        0.1341
     32 C         139.9664  137.3318  163.3500 C.3     1  UNL1        0.0556
     33 C         139.2423  138.4271  164.0756 C.ar    1  UNL1        0.1001
     34 N         138.8482  138.4153  165.5228 N.ar    1  UNL1       -0.2085
     35 C         138.1476  139.7073  165.8229 C.ar    1  UNL1        0.2849
     36 O         138.1088  140.5175  164.5612 O.2     1  UNL1       -0.4283
     37 C         138.7854  139.7263  163.4812 C.ar    1  UNL1        0.1964
@<TRIPOS>BOND
     1    32    33    1
     2    33    34   ar
     3    34    35   ar
     4    35    36   ar
     5    36    37   ar
     6    37    26    1
     7    26    27   ar
     8    27    28   ar
     9    28    29   ar
    10    29    25    1
    11    25    24    1
    12    24    23    1
    13    23    22    1
    14    22     1    1
    15     1     2    1
    16     2     3    1
    17     3     4    1
    18     4     5   ar
    19     5     6   ar
    20     6     7   ar
    21     7     8   ar
    22     8     9   ar
    23     9    15    1
    24    15    16    1
    25    15    17    1
    26    15    18    1
    27    18    19    1
    28    18    20    1
    29    18    21    1
    30     9    10   ar
    31    10    11   ar
    32    11    12   ar
    33    12    13    1
    34    13    14    1
    35    29    30   ar
    36    30    31    1
    37    37    33   ar
    38    30    26   ar
    39    14     1    1
    40    12     4   ar
    41    11     7   ar
@<TRIPOS>MOLECULE
*****
 37 41 0 0 0
SMALL
GASTEIGER

@<TRIPOS>ATOM
      1 N         139.0079  140.6284  159.8171 N.3     1  UNL1       -0.2720
      2 C         138.8921  139.1360  159.9151 C.3     1  UNL1        0.0768
      3 C         139.0000  138.2676  161.1335 C.3     1  UNL1        0.0434
      4 C         139.2504  138.6771  162.5546 C.ar    1  UNL1       -0.0231
      5 C         139.2845  137.4888  163.4694 C.ar    1  UNL1       -0.0013
      6 C         139.5229  137.6795  164.9380 C.ar    1  UNL1        0.0388
      7 C         139.7272  139.0584  165.4919 C.ar    1  UNL1        0.1643
      8 O         139.9807  139.5531  166.8850 O.2     1  UNL1       -0.4335
      9 C         140.1034  141.0472  166.8313 C.ar    1  UNL1        0.2767
     10 N         139.9256  141.4759  165.4049 N.ar    1  UNL1       -0.2076
     11 C         139.6931  140.2467  164.5771 C.ar    1  UNL1        0.1145
     12 C         139.4547  140.0561  163.1085 C.ar    1  UNL1       -0.0039
     13 C         139.4591  141.3661  162.3779 C.3     1  UNL1        0.0450
     14 C         139.2602  141.6208  160.9131 C.3     1  UNL1        0.0769
     15 C         140.3590  141.9534  167.9989 C.3     1  UNL1        0.4148
     16 F         141.1156  142.8910  167.1056 F       1  UNL1       -0.1851
     17 F         139.6022  141.0157  168.8924 F       1  UNL1       -0.1851
     18 C         140.6145  142.8596  169.1667 C.3     1  UNL1        0.4635
     19 F         140.8700  143.7657  170.3344 F       1  UNL1       -0.1646
     20 F         139.9752  143.9958  168.4249 F       1  UNL1       -0.1646
     21 F         141.2538  141.7233  169.9085 F       1  UNL1       -0.1646
     22 C         138.8506  141.2043  158.4410 C.3     1  UNL1        0.0730
     23 C         139.9038  140.9608  157.4012 C.3     1  UNL1        0.0294
     24 C         141.0761  141.8901  157.2890 C.3     1  UNL1        0.0666
     25 S         142.4683  141.3362  157.2199 S.3     1  UNL1       -0.0756
     26 C         143.9619  140.1987  160.6171 C.ar    1  UNL1        0.2029
     27 N         143.9577  138.9066  159.8551 N.ar    1  UNL1       -0.1250
     28 N         143.3978  139.1755  158.4898 N.ar    1  UNL1       -0.1220
     29 C         143.0558  140.6337  158.4080 C.ar    1  UNL1        0.1933
     30 N         143.4044  141.2660  159.7227 N.ar    1  UNL1       -0.2860
     31 C         143.2268  142.7120  160.0802 C.3     1  UNL1        0.1341
     32 C         142.9486  138.5259  163.2295 C.3     1  UNL1        0.0556
     33 C         143.9738  139.6209  163.2269 C.ar    1  UNL1        0.1001
     34 N         144.7132  140.1393  164.4246 N.ar    1  UNL1       -0.2085
     35 C         145.6359  141.2286  163.9640 C.ar    1  UNL1        0.2849
     36 O         145.4668  141.3834  162.4817 O.2     1  UNL1       -0.4283
     37 C         144.4395  140.3899  162.0260 C.ar    1  UNL1        0.1964
@<TRIPOS>BOND
     1    32    33    1
     2    33    34   ar
     3    34    35   ar
     4    35    36   ar
     5    36    37   ar
     6    37    26    1
     7    26    27   ar
     8    27    28   ar
     9    28    29   ar
    10    29    25    1
    11    25    24    1
    12    24    23    1
    13    23    22    1
    14    22     1    1
    15     1     2    1
    16     2     3    1
    17     3     4    1
    18     4     5   ar
    19     5     6   ar
    20     6     7   ar
    21     7     8   ar
    22     8     9   ar
    23     9    15    1
    24    15    16    1
    25    15    17    1
    26    15    18    1
    27    18    19    1
    28    18    20    1
    29    18    21    1
    30     9    10   ar
    31    10    11   ar
    32    11    12   ar
    33    12    13    1
    34    13    14    1
    35    29    30   ar
    36    30    31    1
    37    37    33   ar
    38    30    26   ar
    39    14     1    1
    40    12     4   ar
    41    11     7   ar
