@<TRIPOS>MOLECULE
*****
 25 28 0 0 0
SMALL
GASTEIGER

@<TRIPOS>ATOM
      1 N         139.5694  139.1308  171.7712 N.pl3   1  UNL1       -0.3375
      2 C         140.0441  139.7750  170.5025 C.ar    1  UNL1        0.1567
      3 N         139.2412  139.9473  169.2471 N.ar    1  UNL1       -0.2245
      4 C         140.1058  140.6388  168.2352 C.ar    1  UNL1        0.0889
      5 C         139.8482  141.0692  166.8215 C.ar    1  UNL1        0.0152
      6 C         140.9280  141.7546  166.0376 C.ar    1  UNL1       -0.0228
      7 C         142.2651  142.0097  166.6674 C.ar    1  UNL1       -0.0238
      8 C         142.5228  141.5794  168.0811 C.ar    1  UNL1        0.0036
      9 C         141.4431  140.8939  168.8650 C.ar    1  UNL1        0.0494
     10 S         141.4049  140.3601  170.2662 S.2     1  UNL1       -0.0520
     11 C         143.4701  142.6725  166.0682 C.3     1  UNL1        0.0475
     12 C         143.6352  143.2438  164.6910 C.3     1  UNL1        0.0984
     13 N         142.6363  143.2934  163.5732 N.am    1  UNL1       -0.2754
     14 C         143.1109  143.9376  162.3044 C.2     1  UNL1        0.2490
     15 O         144.5064  144.4807  162.2155 O.2     1  UNL1       -0.2699
     16 C         141.2255  142.7841  163.5562 C.3     1  UNL1        0.0984
     17 C         140.4652  142.0992  164.6530 C.3     1  UNL1        0.0476
     18 H         138.6536  138.7744  171.8296 H       1  UNL1        0.1442
     19 H         140.1738  139.0644  172.5456 H       1  UNL1        0.1442
     20 C         142.1902  144.0388  161.1246 C.ar    1  UNL1        0.0536
     21 C         142.2233  142.9876  160.0550 C.ar    1  UNL1        0.0045
     22 C         141.3027  143.0887  158.8752 C.ar    1  UNL1        0.0001
     23 C         140.3488  144.2411  158.7649 C.ar    1  UNL1        0.0000
     24 C         140.3156  145.2923  159.8344 C.ar    1  UNL1        0.0001
     25 C         141.2363  145.1912  161.0142 C.ar    1  UNL1        0.0045
@<TRIPOS>BOND
     1     1     2    1
     2     2     3   ar
     3     3     4   ar
     4     4     5   ar
     5     5     6   ar
     6     6     7   ar
     7     7     8   ar
     8     8     9   ar
     9     9    10   ar
    10     7    11    1
    11    11    12    1
    12    12    13    1
    13    13    14   am
    14    14    15    2
    15    14    20    1
    16    20    21   ar
    17    21    22   ar
    18    22    23   ar
    19    23    24   ar
    20    24    25   ar
    21    13    16    1
    22    16    17    1
    23    10     2   ar
    24    25    20   ar
    25     9     4   ar
    26    17     6    1
    27     1    18    1
    28     1    19    1
@<TRIPOS>MOLECULE
*****
 25 28 0 0 0
SMALL
GASTEIGER

@<TRIPOS>ATOM
      1 N         143.8347  139.5122  171.4983 N.pl3   1  UNL1       -0.3375
      2 C         143.1100  139.9909  170.2753 C.ar    1  UNL1        0.1567
      3 N         142.9466  139.2300  168.9929 N.ar    1  UNL1       -0.2245
      4 C         142.1571  140.0834  168.0450 C.ar    1  UNL1        0.0889
      5 C         141.6918  139.8538  166.6376 C.ar    1  UNL1        0.0152
      6 C         140.9020  140.9125  165.9267 C.ar    1  UNL1       -0.0228
      7 C         140.5775  142.2007  166.6232 C.ar    1  UNL1       -0.0238
      8 C         141.0428  142.4303  168.0305 C.ar    1  UNL1        0.0036
      9 C         141.8326  141.3717  168.7415 C.ar    1  UNL1        0.0494
     10 S         142.4216  141.3145  170.1199 S.2     1  UNL1       -0.0520
     11 C         139.8086  143.3782  166.1012 C.3     1  UNL1        0.0475
     12 C         139.1744  143.5582  164.7538 C.3     1  UNL1        0.0984
     13 N         139.1523  142.6052  163.5958 N.am    1  UNL1       -0.2754
     14 C         138.4277  143.0839  162.3728 C.2     1  UNL1        0.2490
     15 O         137.7843  144.4389  162.3644 O.2     1  UNL1       -0.2699
     16 C         139.7591  141.2368  163.4989 C.3     1  UNL1        0.0984
     17 C         140.5378  140.4835  164.5362 C.3     1  UNL1        0.0476
     18 H         144.2569  138.6229  171.5038 H       1  UNL1        0.1442
     19 H         143.8880  140.0874  172.2955 H       1  UNL1        0.1442
     20 C         138.3464  142.2075  161.1580 C.ar    1  UNL1        0.0536
     21 C         138.8973  142.6882  159.8482 C.ar    1  UNL1        0.0045
     22 C         138.8160  141.8120  158.6335 C.ar    1  UNL1        0.0001
     23 C         138.1838  140.4551  158.7286 C.ar    1  UNL1        0.0000
     24 C         137.6328  139.9744  160.0383 C.ar    1  UNL1        0.0001
     25 C         137.7141  140.8506  161.2530 C.ar    1  UNL1        0.0045
@<TRIPOS>BOND
     1     1     2    1
     2     2     3   ar
     3     3     4   ar
     4     4     5   ar
     5     5     6   ar
     6     6     7   ar
     7     7     8   ar
     8     8     9   ar
     9     9    10   ar
    10     7    11    1
    11    11    12    1
    12    12    13    1
    13    13    14   am
    14    14    15    2
    15    14    20    1
    16    20    21   ar
    17    21    22   ar
    18    22    23   ar
    19    23    24   ar
    20    24    25   ar
    21    13    16    1
    22    16    17    1
    23    10     2   ar
    24    25    20   ar
    25     9     4   ar
    26    17     6    1
    27     1    18    1
    28     1    19    1
@<TRIPOS>MOLECULE
*****
 25 28 0 0 0
SMALL
GASTEIGER

@<TRIPOS>ATOM
      1 N         141.2169  145.6263  158.0841 N.pl3   1  UNL1       -0.3375
      2 C         140.9767  144.8836  159.3650 C.ar    1  UNL1        0.1567
      3 N         141.7382  145.0637  160.6448 N.ar    1  UNL1       -0.2245
      4 C         141.1649  144.1218  161.6617 C.ar    1  UNL1        0.0889
      5 C         141.5148  143.8597  163.0966 C.ar    1  UNL1        0.0152
      6 C         140.7488  142.8354  163.8803 C.ar    1  UNL1       -0.0228
      7 C         139.6331  142.0733  163.2291 C.ar    1  UNL1       -0.0238
      8 C         139.2832  142.3353  161.7942 C.ar    1  UNL1        0.0036
      9 C         140.0491  143.3596  161.0105 C.ar    1  UNL1        0.0494
     10 S         139.9328  143.8305  159.5911 S.2     1  UNL1       -0.0520
     11 C         138.7495  141.0174  163.8245 C.3     1  UNL1        0.0475
     12 C         138.7636  140.4629  165.2183 C.3     1  UNL1        0.0984
     13 N         139.6647  140.8273  166.3606 N.am    1  UNL1       -0.2754
     14 C         139.4245  140.0846  167.6415 C.2     1  UNL1        0.2490
     15 O         138.3380  139.0532  167.7180 O.2     1  UNL1       -0.2699
     16 C         140.7742  141.8362  166.3916 C.3     1  UNL1        0.0984
     17 C         141.2567  142.7299  165.2877 C.3     1  UNL1        0.0476
     18 H         141.9300  146.3033  158.0339 H       1  UNL1        0.1442
     19 H         140.6615  145.4369  157.2936 H       1  UNL1        0.1442
     20 C         140.2707  140.3733  168.8460 C.ar    1  UNL1        0.0536
     21 C         139.8214  141.3916  169.8516 C.ar    1  UNL1        0.0045
     22 C         140.6675  141.6803  171.0560 C.ar    1  UNL1        0.0001
     23 C         141.9629  140.9507  171.2549 C.ar    1  UNL1        0.0000
     24 C         142.4122  139.9324  170.2492 C.ar    1  UNL1        0.0001
     25 C         141.5661  139.6437  169.0448 C.ar    1  UNL1        0.0045
@<TRIPOS>BOND
     1     1     2    1
     2     2     3   ar
     3     3     4   ar
     4     4     5   ar
     5     5     6   ar
     6     6     7   ar
     7     7     8   ar
     8     8     9   ar
     9     9    10   ar
    10     7    11    1
    11    11    12    1
    12    12    13    1
    13    13    14   am
    14    14    15    2
    15    14    20    1
    16    20    21   ar
    17    21    22   ar
    18    22    23   ar
    19    23    24   ar
    20    24    25   ar
    21    13    16    1
    22    16    17    1
    23    10     2   ar
    24    25    20   ar
    25     9     4   ar
    26    17     6    1
    27     1    18    1
    28     1    19    1
@<TRIPOS>MOLECULE
*****
 25 28 0 0 0
SMALL
GASTEIGER

@<TRIPOS>ATOM
      1 N         143.7226  143.5838  156.8616 N.pl3   1  UNL1       -0.3375
      2 C         143.5656  143.1388  158.2854 C.ar    1  UNL1        0.1567
      3 N         142.8164  143.8695  159.3601 N.ar    1  UNL1       -0.2245
      4 C         142.9180  143.0672  160.6234 C.ar    1  UNL1        0.0889
      5 C         142.3760  143.2951  162.0034 C.ar    1  UNL1        0.0152
      6 C         142.6461  142.2964  163.0896 C.ar    1  UNL1       -0.0228
      7 C         143.4581  141.0700  162.7958 C.ar    1  UNL1       -0.0238
      8 C         144.0001  140.8421  161.4158 C.ar    1  UNL1        0.0036
      9 C         143.7301  141.8407  160.3296 C.ar    1  UNL1        0.0494
     10 S         144.1303  141.8850  158.8847 S.2     1  UNL1       -0.0520
     11 C         143.8417  139.9573  163.7258 C.3     1  UNL1        0.0475
     12 C         143.5079  139.7964  165.1794 C.3     1  UNL1        0.0984
     13 N         142.7082  140.7083  166.0618 N.am    1  UNL1       -0.2754
     14 C         142.5512  140.2633  167.4856 C.2     1  UNL1        0.2490
     15 O         143.1760  138.9786  167.9431 O.2     1  UNL1       -0.2699
     16 C         142.0447  142.0064  165.7087 C.3     1  UNL1        0.0984
     17 C         142.0171  142.7132  164.3860 C.3     1  UNL1        0.0476
     18 H         143.3126  144.4270  156.5613 H       1  UNL1        0.1442
     19 H         144.2357  143.0327  156.2273 H       1  UNL1        0.1442
     20 C         141.7695  141.1029  168.4520 C.ar    1  UNL1        0.0536
     21 C         140.3756  140.7031  168.8360 C.ar    1  UNL1        0.0045
     22 C         139.5939  141.5427  169.8023 C.ar    1  UNL1        0.0001
     23 C         140.2059  142.7821  170.3848 C.ar    1  UNL1        0.0000
     24 C         141.5998  143.1819  170.0008 C.ar    1  UNL1        0.0001
     25 C         142.3815  142.3424  169.0345 C.ar    1  UNL1        0.0045
@<TRIPOS>BOND
     1     1     2    1
     2     2     3   ar
     3     3     4   ar
     4     4     5   ar
     5     5     6   ar
     6     6     7   ar
     7     7     8   ar
     8     8     9   ar
     9     9    10   ar
    10     7    11    1
    11    11    12    1
    12    12    13    1
    13    13    14   am
    14    14    15    2
    15    14    20    1
    16    20    21   ar
    17    21    22   ar
    18    22    23   ar
    19    23    24   ar
    20    24    25   ar
    21    13    16    1
    22    16    17    1
    23    10     2   ar
    24    25    20   ar
    25     9     4   ar
    26    17     6    1
    27     1    18    1
    28     1    19    1
@<TRIPOS>MOLECULE
*****
 25 28 0 0 0
SMALL
GASTEIGER

@<TRIPOS>ATOM
      1 N         143.0212  138.5550  170.6406 N.pl3   1  UNL1       -0.3375
      2 C         142.5592  139.3517  169.4565 C.ar    1  UNL1        0.1567
      3 N         142.9806  139.1399  168.0325 N.ar    1  UNL1       -0.2245
      4 C         142.2766  140.1573  167.1846 C.ar    1  UNL1        0.0889
      5 C         142.3048  140.4269  165.7092 C.ar    1  UNL1        0.0152
      6 C         141.4764  141.5372  165.1337 C.ar    1  UNL1       -0.0228
      7 C         140.6200  142.3777  166.0335 C.ar    1  UNL1       -0.0238
      8 C         140.5917  142.1082  167.5088 C.ar    1  UNL1        0.0036
      9 C         141.4201  140.9980  168.0844 C.ar    1  UNL1        0.0494
     10 S         141.5948  140.5000  169.4885 S.2     1  UNL1       -0.0520
     11 C         139.7247  143.5248  165.6688 C.3     1  UNL1        0.0475
     12 C         139.4650  144.1144  164.3142 C.3     1  UNL1        0.0984
     13 N         140.0362  143.7026  162.9899 N.am    1  UNL1       -0.2754
     14 C         139.5743  144.4993  161.8058 C.2     1  UNL1        0.2490
     15 O         138.6015  145.6257  161.9930 O.2     1  UNL1       -0.2699
     16 C         141.0084  142.5996  162.6929 C.3     1  UNL1        0.0984
     17 C         141.6493  141.6358  163.6470 C.3     1  UNL1        0.0476
     18 H         143.6596  137.8158  170.5177 H       1  UNL1        0.1442
     19 H         142.6859  138.7714  171.5406 H       1  UNL1        0.1442
     20 C         140.0851  144.1696  160.4345 C.ar    1  UNL1        0.0536
     21 C         139.3652  143.1616  159.5883 C.ar    1  UNL1        0.0045
     22 C         139.8759  142.8319  158.2171 C.ar    1  UNL1        0.0001
     23 C         141.1065  143.5101  157.6919 C.ar    1  UNL1        0.0000
     24 C         141.8263  144.5181  158.5381 C.ar    1  UNL1        0.0001
     25 C         141.3156  144.8478  159.9093 C.ar    1  UNL1        0.0045
@<TRIPOS>BOND
     1     1     2    1
     2     2     3   ar
     3     3     4   ar
     4     4     5   ar
     5     5     6   ar
     6     6     7   ar
     7     7     8   ar
     8     8     9   ar
     9     9    10   ar
    10     7    11    1
    11    11    12    1
    12    12    13    1
    13    13    14   am
    14    14    15    2
    15    14    20    1
    16    20    21   ar
    17    21    22   ar
    18    22    23   ar
    19    23    24   ar
    20    24    25   ar
    21    13    16    1
    22    16    17    1
    23    10     2   ar
    24    25    20   ar
    25     9     4   ar
    26    17     6    1
    27     1    18    1
    28     1    19    1
@<TRIPOS>MOLECULE
*****
 25 28 0 0 0
SMALL
GASTEIGER

@<TRIPOS>ATOM
      1 N         140.4414  146.3037  157.2565 N.pl3   1  UNL1       -0.3375
      2 C         140.6415  145.5904  158.5608 C.ar    1  UNL1        0.1567
      3 N         139.9230  145.8824  159.8448 N.ar    1  UNL1       -0.2245
      4 C         140.4327  144.9323  160.8876 C.ar    1  UNL1        0.0889
      5 C         140.0893  144.7542  162.3369 C.ar    1  UNL1        0.0152
      6 C         140.7794  143.6968  163.1467 C.ar    1  UNL1       -0.0228
      7 C         141.8129  142.8177  162.5073 C.ar    1  UNL1       -0.0238
      8 C         142.1564  142.9958  161.0581 C.ar    1  UNL1        0.0036
      9 C         141.4663  144.0532  160.2482 C.ar    1  UNL1        0.0494
     10 S         141.5953  144.4599  158.8102 S.2     1  UNL1       -0.0520
     11 C         142.6139  141.7118  163.1283 C.3     1  UNL1        0.0475
     12 C         142.5790  141.2121  164.5423 C.3     1  UNL1        0.0984
     13 N         141.7346  141.6947  165.6841 N.am    1  UNL1       -0.2754
     14 C         141.9348  140.9813  166.9884 C.2     1  UNL1        0.2490
     15 O         142.9300  139.8633  167.0868 O.2     1  UNL1       -0.2699
     16 C         140.7166  142.7962  165.6944 C.3     1  UNL1        0.0984
     17 C         140.2915  143.6873  164.5651 C.3     1  UNL1        0.0476
     18 H         139.7882  147.0375  157.1920 H       1  UNL1        0.1442
     19 H         140.9632  146.0381  156.4651 H       1  UNL1        0.1442
     20 C         141.1398  141.3860  168.1944 C.ar    1  UNL1        0.0536
     21 C         141.4496  142.6732  168.8996 C.ar    1  UNL1        0.0045
     22 C         140.6547  143.0779  170.1055 C.ar    1  UNL1        0.0001
     23 C         139.5499  142.1955  170.6062 C.ar    1  UNL1        0.0000
     24 C         139.2400  140.9083  169.9010 C.ar    1  UNL1        0.0001
     25 C         140.0349  140.5036  168.6951 C.ar    1  UNL1        0.0045
@<TRIPOS>BOND
     1     1     2    1
     2     2     3   ar
     3     3     4   ar
     4     4     5   ar
     5     5     6   ar
     6     6     7   ar
     7     7     8   ar
     8     8     9   ar
     9     9    10   ar
    10     7    11    1
    11    11    12    1
    12    12    13    1
    13    13    14   am
    14    14    15    2
    15    14    20    1
    16    20    21   ar
    17    21    22   ar
    18    22    23   ar
    19    23    24   ar
    20    24    25   ar
    21    13    16    1
    22    16    17    1
    23    10     2   ar
    24    25    20   ar
    25     9     4   ar
    26    17     6    1
    27     1    18    1
    28     1    19    1
@<TRIPOS>MOLECULE
*****
 25 28 0 0 0
SMALL
GASTEIGER

@<TRIPOS>ATOM
      1 N         140.7812  138.8591  157.0503 N.pl3   1  UNL1       -0.3375
      2 C         140.6580  139.0455  158.5336 C.ar    1  UNL1        0.1567
      3 N         141.5556  139.8842  159.3944 N.ar    1  UNL1       -0.2245
      4 C         141.0680  139.7829  160.8093 C.ar    1  UNL1        0.0889
      5 C         141.5608  140.3949  162.0870 C.ar    1  UNL1        0.0152
      6 C         140.8546  140.1057  163.3784 C.ar    1  UNL1       -0.0228
      7 C         139.6557  139.2045  163.3920 C.ar    1  UNL1       -0.0238
      8 C         139.1628  138.5925  162.1144 C.ar    1  UNL1        0.0036
      9 C         139.8689  138.8817  160.8229 C.ar    1  UNL1        0.0494
     10 S         139.6156  138.4260  159.4165 S.2     1  UNL1       -0.0520
     11 C         138.8118  138.7883  164.5603 C.3     1  UNL1        0.0475
     12 C         138.9585  139.1706  166.0034 C.3     1  UNL1        0.0984
     13 N         139.9853  140.0633  166.6345 N.am    1  UNL1       -0.2754
     14 C         139.8622  140.2497  168.1178 C.2     1  UNL1        0.2490
     15 O         138.7622  139.5624  168.8713 O.2     1  UNL1       -0.2699
     16 C         141.1191  140.7945  165.9787 C.3     1  UNL1        0.0984
     17 C         141.5059  140.8133  164.5295 C.3     1  UNL1        0.0476
     18 H         141.5031  139.3102  156.5557 H       1  UNL1        0.1442
     19 H         140.1400  138.2857  156.5713 H       1  UNL1        0.1442
     20 C         140.8390  141.1234  168.8477 C.ar    1  UNL1        0.0536
     21 C         142.1873  140.5866  169.2270 C.ar    1  UNL1        0.0045
     22 C         143.1641  141.4602  169.9569 C.ar    1  UNL1        0.0001
     23 C         142.7926  142.8706  170.3073 C.ar    1  UNL1        0.0000
     24 C         141.4442  143.4074  169.9279 C.ar    1  UNL1        0.0001
     25 C         140.4675  142.5338  169.1981 C.ar    1  UNL1        0.0045
@<TRIPOS>BOND
     1     1     2    1
     2     2     3   ar
     3     3     4   ar
     4     4     5   ar
     5     5     6   ar
     6     6     7   ar
     7     7     8   ar
     8     8     9   ar
     9     9    10   ar
    10     7    11    1
    11    11    12    1
    12    12    13    1
    13    13    14   am
    14    14    15    2
    15    14    20    1
    16    20    21   ar
    17    21    22   ar
    18    22    23   ar
    19    23    24   ar
    20    24    25   ar
    21    13    16    1
    22    16    17    1
    23    10     2   ar
    24    25    20   ar
    25     9     4   ar
    26    17     6    1
    27     1    18    1
    28     1    19    1
@<TRIPOS>MOLECULE
*****
 25 28 0 0 0
SMALL
GASTEIGER

@<TRIPOS>ATOM
      1 N         143.3480  143.7278  171.5014 N.pl3   1  UNL1       -0.3375
      2 C         142.8692  143.0137  170.2722 C.ar    1  UNL1        0.1567
      3 N         143.6417  142.8358  168.9987 N.ar    1  UNL1       -0.2245
      4 C         142.7838  142.0644  168.0402 C.ar    1  UNL1        0.0889
      5 C         143.0205  141.5954  166.6351 C.ar    1  UNL1        0.0152
      6 C         141.9545  140.8275  165.9112 C.ar    1  UNL1       -0.0228
      7 C         140.6519  140.5287  166.5922 C.ar    1  UNL1       -0.0238
      8 C         140.4152  140.9976  167.9972 C.ar    1  UNL1        0.0036
      9 C         141.4811  141.7655  168.7212 C.ar    1  UNL1        0.0494
     10 S         141.5340  142.3522  170.1007 S.2     1  UNL1       -0.0520
     11 C         139.4654  139.7840  166.0558 C.3     1  UNL1        0.0475
     12 C         139.2885  139.1544  164.7058 C.3     1  UNL1        0.0984
     13 N         140.2544  139.1139  163.5590 N.am    1  UNL1       -0.2754
     14 C         139.7756  138.3998  162.3298 C.2     1  UNL1        0.2490
     15 O         138.4081  137.7839  162.3050 O.2     1  UNL1       -0.2699
     16 C         141.6358  139.6930  163.4787 C.3     1  UNL1        0.0984
     17 C         142.3924  140.4556  164.5255 C.3     1  UNL1        0.0476
     18 H         144.2455  144.1320  171.5177 H       1  UNL1        0.1442
     19 H         142.7647  143.7922  172.2919 H       1  UNL1        0.1442
     20 C         140.6643  138.3016  161.1254 C.ar    1  UNL1        0.0536
     21 C         142.0260  137.6840  161.2464 C.ar    1  UNL1        0.0045
     22 C         142.9147  137.5857  160.0421 C.ar    1  UNL1        0.0001
     23 C         142.4418  138.1051  158.7167 C.ar    1  UNL1        0.0000
     24 C         141.0802  138.7228  158.5957 C.ar    1  UNL1        0.0001
     25 C         140.1915  138.8210  159.8000 C.ar    1  UNL1        0.0045
@<TRIPOS>BOND
     1     1     2    1
     2     2     3   ar
     3     3     4   ar
     4     4     5   ar
     5     5     6   ar
     6     6     7   ar
     7     7     8   ar
     8     8     9   ar
     9     9    10   ar
    10     7    11    1
    11    11    12    1
    12    12    13    1
    13    13    14   am
    14    14    15    2
    15    14    20    1
    16    20    21   ar
    17    21    22   ar
    18    22    23   ar
    19    23    24   ar
    20    24    25   ar
    21    13    16    1
    22    16    17    1
    23    10     2   ar
    24    25    20   ar
    25     9     4   ar
    26    17     6    1
    27     1    18    1
    28     1    19    1
@<TRIPOS>MOLECULE
*****
 25 28 0 0 0
SMALL
GASTEIGER

@<TRIPOS>ATOM
      1 N         142.6436  140.2535  171.4774 N.pl3   1  UNL1       -0.3375
      2 C         142.1010  140.1707  170.0814 C.ar    1  UNL1        0.1567
      3 N         142.9102  140.1872  168.8185 N.ar    1  UNL1       -0.2245
      4 C         141.9633  140.0836  167.6598 C.ar    1  UNL1        0.0889
      5 C         142.1906  140.0522  166.1775 C.ar    1  UNL1        0.0152
      6 C         141.0234  139.9403  165.2419 C.ar    1  UNL1       -0.0228
      7 C         139.6291  139.8599  165.7887 C.ar    1  UNL1       -0.0238
      8 C         139.4016  139.8914  167.2710 C.ar    1  UNL1        0.0036
      9 C         140.5688  140.0032  168.2066 C.ar    1  UNL1        0.0494
     10 S         140.6539  140.0570  169.7032 S.2     1  UNL1       -0.0520
     11 C         138.3353  139.7451  165.0382 C.3     1  UNL1        0.0475
     12 C         138.1167  139.6824  163.5554 C.3     1  UNL1        0.0984
     13 N         139.1376  139.7189  162.4572 N.am    1  UNL1       -0.2754
     14 C         138.5950  139.6362  161.0613 C.2     1  UNL1        0.2490
     15 O         137.1160  139.5252  160.8368 O.2     1  UNL1       -0.2699
     16 C         140.6294  139.8273  162.5703 C.3     1  UNL1        0.0984
     17 C         141.4687  139.9258  163.8096 C.3     1  UNL1        0.0476
     18 H         143.6143  140.3263  171.6247 H       1  UNL1        0.1442
     19 H         142.0290  140.2349  172.2463 H       1  UNL1        0.1442
     20 C         139.5314  139.6645  159.8897 C.ar    1  UNL1        0.0536
     21 C         140.0073  138.3798  159.2788 C.ar    1  UNL1        0.0045
     22 C         140.9436  138.4080  158.1073 C.ar    1  UNL1        0.0001
     23 C         141.4040  139.7209  157.5466 C.ar    1  UNL1        0.0000
     24 C         140.9281  141.0056  158.1575 C.ar    1  UNL1        0.0001
     25 C         139.9918  140.9774  159.3290 C.ar    1  UNL1        0.0045
@<TRIPOS>BOND
     1     1     2    1
     2     2     3   ar
     3     3     4   ar
     4     4     5   ar
     5     5     6   ar
     6     6     7   ar
     7     7     8   ar
     8     8     9   ar
     9     9    10   ar
    10     7    11    1
    11    11    12    1
    12    12    13    1
    13    13    14   am
    14    14    15    2
    15    14    20    1
    16    20    21   ar
    17    21    22   ar
    18    22    23   ar
    19    23    24   ar
    20    24    25   ar
    21    13    16    1
    22    16    17    1
    23    10     2   ar
    24    25    20   ar
    25     9     4   ar
    26    17     6    1
    27     1    18    1
    28     1    19    1
