@<TRIPOS>MOLECULE
*****
 44 48 0 0 0
SMALL
GASTEIGER

@<TRIPOS>ATOM
      1 C         141.2949  140.8499  162.5780 C.3     1  UNL1        0.0807
      2 C         141.3371  140.6847  164.0683 C.ar    1  UNL1        0.0375
      3 C         140.9640  141.8311  164.9608 C.ar    1  UNL1        0.0023
      4 C         141.0062  141.6659  166.4512 C.ar    1  UNL1        0.0183
      5 C         140.6331  142.8122  167.3437 C.ar    1  UNL1        0.0118
      6 C         140.6753  142.6470  168.8339 C.ar    1  UNL1        0.0685
      7 C         141.0905  141.3354  169.4317 C.ar    1  UNL1        0.0118
      8 C         141.4636  140.1890  168.5391 C.ar    1  UNL1        0.0199
      9 C         141.4214  140.3543  167.0489 C.ar    1  UNL1        0.0844
     10 N         141.7945  139.2078  166.1563 N.ar    1  UNL1       -0.2119
     11 C         141.7523  139.3731  164.6661 C.ar    1  UNL1        0.2211
     12 C         140.3022  143.7934  169.7265 C.1     1  UNL1        0.1004
     13 N         139.9292  144.9397  170.6191 N.1     1  UNL1       -0.1908
     14 O         142.1254  138.2267  163.7735 O.3     1  UNL1       -0.4563
     15 C         141.1103  137.1732  163.4418 C.3     1  UNL1        0.2542
     16 C         140.1307  140.3166  161.7969 C.ar    1  UNL1        0.0215
     17 C         138.7305  140.5645  162.2745 C.ar    1  UNL1       -0.0007
     18 C         137.5662  140.0312  161.4934 C.ar    1  UNL1        0.0030
     19 C         137.8021  139.2500  160.2348 C.ar    1  UNL1        0.0402
     20 C         139.2023  139.0022  159.7573 C.ar    1  UNL1        0.1761
     21 C         140.3666  139.5354  160.5383 C.ar    1  UNL1        0.1728
     22 O         141.6247  139.1352  159.8264 O.3     1  UNL1       -0.4349
     23 C         141.2380  138.3545  158.6053 C.3     1  UNL1        0.4294
     24 O         139.7408  138.2723  158.5626 O.3     1  UNL1       -0.4346
     25 C         142.4170  141.5484  161.8688 C.3     1  UNL1        0.1162
     26 O         143.3384  140.4151  162.2106 O.3     1  UNL1       -0.3820
     27 H         144.2212  140.5967  161.8519 H       1  UNL1        0.2107
     28 C         140.3035  144.1545  159.7496 C.ar    1  UNL1        0.2272
     29 C         141.2249  143.0212  160.0913 C.ar    1  UNL1        0.0559
     30 C         141.4956  142.6816  161.5271 C.ar    1  UNL1        0.0117
     31 C         140.8450  143.4752  162.6210 C.ar    1  UNL1        0.0560
     32 C         139.9236  144.6085  162.2792 C.ar    1  UNL1        0.2319
     33 N         139.6529  144.9481  160.8435 N.ar    1  UNL1       -0.1766
     34 C         140.3480  145.8659  157.7953 C.3     1  UNL1        0.2542
     35 O         140.0328  144.4941  158.3138 O.3     1  UNL1       -0.4561
     36 O         139.2729  145.4021  163.3733 O.3     1  UNL1       -0.4067
     37 C         138.6590  144.6982  164.5470 C.3     1  UNL1        0.5097
     38 F         138.0244  143.3513  164.3658 F       1  UNL1       -0.1549
     39 F         138.6797  145.3414  165.9020 F       1  UNL1       -0.1549
     40 C         143.5392  142.2468  161.1596 C.3     1  UNL1        0.0491
     41 C         144.4969  143.1040  161.9329 C.3     1  UNL1        0.0750
     42 N         144.8318  142.7602  163.3540 N.3     1  UNL1       -0.2702
     43 C         145.8406  141.6900  163.6490 C.3     1  UNL1        0.0897
     44 C         144.1580  143.4866  164.4802 C.3     1  UNL1        0.0897
@<TRIPOS>BOND
     1    34    35    1
     2    35    28    1
     3    28    29   ar
     4    29    30   ar
     5    30    25    1
     6    25    26    1
     7    25    40    1
     8    40    41    1
     9    41    42    1
    10    42    43    1
    11    42    44    1
    12    25     1    1
    13     1     2    1
    14     2     3   ar
    15     3     4   ar
    16     4     5   ar
    17     5     6   ar
    18     6    12    1
    19    12    13    3
    20     6     7   ar
    21     7     8   ar
    22     8     9   ar
    23     9    10   ar
    24    10    11   ar
    25    11    14    1
    26    14    15    1
    27     1    16    1
    28    16    17   ar
    29    17    18   ar
    30    18    19   ar
    31    19    20   ar
    32    20    21   ar
    33    21    22    1
    34    22    23    1
    35    23    24    1
    36    30    31   ar
    37    31    32   ar
    38    32    36    1
    39    36    37    1
    40    37    38    1
    41    37    39    1
    42    32    33   ar
    43    33    28   ar
    44    11     2   ar
    45    21    16   ar
    46     9     4   ar
    47    24    20    1
    48    26    27    1
@<TRIPOS>MOLECULE
*****
 44 48 0 0 0
SMALL
GASTEIGER

@<TRIPOS>ATOM
      1 C         141.5121  140.6500  163.2484 C.3     1  UNL1        0.0807
      2 C         141.7364  140.5180  164.7257 C.ar    1  UNL1        0.0375
      3 C         140.9273  141.3412  165.6836 C.ar    1  UNL1        0.0023
      4 C         141.1515  141.2091  167.1609 C.ar    1  UNL1        0.0183
      5 C         140.3424  142.0323  168.1188 C.ar    1  UNL1        0.0118
      6 C         140.5667  141.9003  169.5960 C.ar    1  UNL1        0.0685
      7 C         141.6000  140.9451  170.1153 C.ar    1  UNL1        0.0118
      8 C         142.4091  140.1219  169.1574 C.ar    1  UNL1        0.0199
      9 C         142.1849  140.2539  167.6802 C.ar    1  UNL1        0.0844
     10 N         142.9940  139.4307  166.7222 N.ar    1  UNL1       -0.2119
     11 C         142.7697  139.5627  165.2450 C.ar    1  UNL1        0.2211
     12 C         139.7575  142.7235  170.5540 C.1     1  UNL1        0.1004
     13 N         138.9484  143.5467  171.5120 N.1     1  UNL1       -0.1908
     14 O         143.5789  138.7395  164.2870 O.3     1  UNL1       -0.4563
     15 C         144.9795  139.1509  163.9421 C.3     1  UNL1        0.2542
     16 C         142.5030  141.3938  162.4029 C.ar    1  UNL1        0.0215
     17 C         143.1017  140.7359  161.1952 C.ar    1  UNL1       -0.0007
     18 C         144.0926  141.4798  160.3496 C.ar    1  UNL1        0.0030
     19 C         144.4847  142.8816  160.7119 C.ar    1  UNL1        0.0402
     20 C         143.8859  143.5395  161.9197 C.ar    1  UNL1        0.1761
     21 C         142.8951  142.7956  162.7652 C.ar    1  UNL1        0.1728
     22 O         142.4755  143.6967  163.8885 O.3     1  UNL1       -0.4349
     23 C         143.2069  144.9975  163.7373 C.3     1  UNL1        0.4294
     24 O         144.0787  144.9003  162.5204 O.3     1  UNL1       -0.4346
     25 C         140.2971  140.0381  162.6166 C.3     1  UNL1        0.1162
     26 O         140.8555  138.6689  162.8686 O.3     1  UNL1       -0.3820
     27 H         140.2351  138.0007  162.5378 H       1  UNL1        0.2107
     28 C         139.3259  143.4085  160.7601 C.ar    1  UNL1        0.2272
     29 C         139.8843  142.0394  161.0121 C.ar    1  UNL1        0.0559
     30 C         139.7386  141.4072  162.3646 C.ar    1  UNL1        0.0117
     31 C         139.0345  142.1443  163.4650 C.ar    1  UNL1        0.0560
     32 C         138.4760  143.5134  163.2129 C.ar    1  UNL1        0.2319
     33 N         138.6217  144.1456  161.8605 N.ar    1  UNL1       -0.1766
     34 C         139.2667  143.2188  158.1696 C.3     1  UNL1        0.2542
     35 O         139.4716  144.0407  159.4076 O.3     1  UNL1       -0.4561
     36 O         137.7718  144.2505  164.3134 O.3     1  UNL1       -0.4067
     37 C         138.5556  144.8049  165.4659 C.3     1  UNL1        0.5097
     38 F         139.9922  144.4158  165.6522 F       1  UNL1       -0.1549
     39 F         137.9028  145.7486  166.4321 F       1  UNL1       -0.1549
     40 C         139.0820  139.4262  161.9848 C.3     1  UNL1        0.0491
     41 C         139.2359  138.3660  160.9349 C.3     1  UNL1        0.0750
     42 N         139.9167  138.6883  159.6378 N.3     1  UNL1       -0.2702
     43 C         139.1709  139.4184  158.5604 C.3     1  UNL1        0.0897
     44 C         141.3433  138.2805  159.4180 C.3     1  UNL1        0.0897
@<TRIPOS>BOND
     1    34    35    1
     2    35    28    1
     3    28    29   ar
     4    29    30   ar
     5    30    25    1
     6    25    26    1
     7    25    40    1
     8    40    41    1
     9    41    42    1
    10    42    43    1
    11    42    44    1
    12    25     1    1
    13     1     2    1
    14     2     3   ar
    15     3     4   ar
    16     4     5   ar
    17     5     6   ar
    18     6    12    1
    19    12    13    3
    20     6     7   ar
    21     7     8   ar
    22     8     9   ar
    23     9    10   ar
    24    10    11   ar
    25    11    14    1
    26    14    15    1
    27     1    16    1
    28    16    17   ar
    29    17    18   ar
    30    18    19   ar
    31    19    20   ar
    32    20    21   ar
    33    21    22    1
    34    22    23    1
    35    23    24    1
    36    30    31   ar
    37    31    32   ar
    38    32    36    1
    39    36    37    1
    40    37    38    1
    41    37    39    1
    42    32    33   ar
    43    33    28   ar
    44    11     2   ar
    45    21    16   ar
    46     9     4   ar
    47    24    20    1
    48    26    27    1
@<TRIPOS>MOLECULE
*****
 44 48 0 0 0
SMALL
GASTEIGER

@<TRIPOS>ATOM
      1 C         142.0490  141.4321  162.7691 C.3     1  UNL1        0.0807
      2 C         142.3294  141.6583  164.2253 C.ar    1  UNL1        0.0375
      3 C         141.4828  140.9863  165.2652 C.ar    1  UNL1        0.0023
      4 C         141.7631  141.2125  166.7214 C.ar    1  UNL1        0.0183
      5 C         140.9165  140.5405  167.7614 C.ar    1  UNL1        0.0118
      6 C         141.1969  140.7667  169.2175 C.ar    1  UNL1        0.0685
      7 C         142.3238  141.6650  169.6335 C.ar    1  UNL1        0.0118
      8 C         143.1704  142.3370  168.5935 C.ar    1  UNL1        0.0199
      9 C         142.8901  142.1108  167.1375 C.ar    1  UNL1        0.0844
     10 N         143.7367  142.7828  166.0974 N.ar    1  UNL1       -0.2119
     11 C         143.4563  142.5565  164.6413 C.ar    1  UNL1        0.2211
     12 C         140.3502  140.0947  170.2575 C.1     1  UNL1        0.1004
     13 N         139.5037  139.4227  171.2976 N.1     1  UNL1       -0.1908
     14 O         144.3030  143.2286  163.6013 O.3     1  UNL1       -0.4563
     15 C         144.0505  144.6625  163.2406 C.3     1  UNL1        0.2542
     16 C         141.3860  142.5051  161.9575 C.ar    1  UNL1        0.0215
     17 C         142.0604  143.0416  160.7298 C.ar    1  UNL1       -0.0007
     18 C         141.3974  144.1148  159.9180 C.ar    1  UNL1        0.0030
     19 C         140.0598  144.6513  160.3341 C.ar    1  UNL1        0.0402
     20 C         139.3854  144.1148  161.5618 C.ar    1  UNL1        0.1761
     21 C         140.0484  143.0417  162.3735 C.ar    1  UNL1        0.1728
     22 O         139.1485  142.7102  163.5268 O.3     1  UNL1       -0.4349
     23 C         137.9293  143.5784  163.4280 C.3     1  UNL1        0.4294
     24 O         138.0757  144.4465  162.2135 O.3     1  UNL1       -0.4346
     25 C         142.4318  140.1328  162.1247 C.3     1  UNL1        0.1162
     26 O         143.8654  140.5726  162.0894 O.3     1  UNL1       -0.3820
     27 H         144.4078  139.8752  161.6889 H       1  UNL1        0.2107
     28 C         138.7122  139.3750  160.9669 C.ar    1  UNL1        0.2272
     29 C         140.1459  139.8148  160.9317 C.ar    1  UNL1        0.0559
     30 C         140.9982  139.6930  162.1599 C.ar    1  UNL1        0.0117
     31 C         140.4168  139.1313  163.4234 C.ar    1  UNL1        0.0560
     32 C         138.9832  138.6915  163.4587 C.ar    1  UNL1        0.2319
     33 N         138.1309  138.8133  162.2304 N.ar    1  UNL1       -0.1766
     34 C         138.1995  140.5120  158.6878 C.3     1  UNL1        0.2542
     35 O         137.8599  139.4969  159.7385 O.3     1  UNL1       -0.4561
     36 O         138.4018  138.1298  164.7223 O.3     1  UNL1       -0.4067
     37 C         138.0575  139.0440  165.8606 C.3     1  UNL1        0.5097
     38 F         137.5546  138.4747  167.1540 F       1  UNL1       -0.1549
     39 F         138.2162  140.5275  165.7054 F       1  UNL1       -0.1549
     40 C         142.8146  138.8335  161.4803 C.3     1  UNL1        0.0491
     41 C         143.8641  138.8081  160.4090 C.3     1  UNL1        0.0750
     42 N         143.5196  139.2299  159.0113 N.3     1  UNL1       -0.2702
     43 C         142.7124  138.3221  158.1315 C.3     1  UNL1        0.0897
     44 C         143.9824  140.5594  158.4935 C.3     1  UNL1        0.0897
@<TRIPOS>BOND
     1    34    35    1
     2    35    28    1
     3    28    29   ar
     4    29    30   ar
     5    30    25    1
     6    25    26    1
     7    25    40    1
     8    40    41    1
     9    41    42    1
    10    42    43    1
    11    42    44    1
    12    25     1    1
    13     1     2    1
    14     2     3   ar
    15     3     4   ar
    16     4     5   ar
    17     5     6   ar
    18     6    12    1
    19    12    13    3
    20     6     7   ar
    21     7     8   ar
    22     8     9   ar
    23     9    10   ar
    24    10    11   ar
    25    11    14    1
    26    14    15    1
    27     1    16    1
    28    16    17   ar
    29    17    18   ar
    30    18    19   ar
    31    19    20   ar
    32    20    21   ar
    33    21    22    1
    34    22    23    1
    35    23    24    1
    36    30    31   ar
    37    31    32   ar
    38    32    36    1
    39    36    37    1
    40    37    38    1
    41    37    39    1
    42    32    33   ar
    43    33    28   ar
    44    11     2   ar
    45    21    16   ar
    46     9     4   ar
    47    24    20    1
    48    26    27    1
@<TRIPOS>MOLECULE
*****
 44 48 0 0 0
SMALL
GASTEIGER

@<TRIPOS>ATOM
      1 C         140.6037  140.6281  162.8367 C.3     1  UNL1        0.0807
      2 C         140.3849  140.5331  164.3176 C.ar    1  UNL1        0.0375
      3 C         141.1886  141.3891  165.2510 C.ar    1  UNL1        0.0023
      4 C         140.9697  141.2941  166.7320 C.ar    1  UNL1        0.0183
      5 C         141.7734  142.1502  167.6653 C.ar    1  UNL1        0.0118
      6 C         141.5545  142.0551  169.1462 C.ar    1  UNL1        0.0685
      7 C         140.5320  141.1040  169.6937 C.ar    1  UNL1        0.0118
      8 C         139.7283  140.2479  168.7603 C.ar    1  UNL1        0.0199
      9 C         139.9472  140.3430  167.2795 C.ar    1  UNL1        0.0844
     10 N         139.1435  139.4869  166.3460 N.ar    1  UNL1       -0.2119
     11 C         139.3623  139.5820  164.8652 C.ar    1  UNL1        0.2211
     12 C         142.3582  142.9112  170.0796 C.1     1  UNL1        0.1004
     13 N         143.1619  143.7673  171.0130 N.1     1  UNL1       -0.1908
     14 O         138.5586  138.7259  163.9317 O.3     1  UNL1       -0.4563
     15 C         139.0706  137.3764  163.5234 C.3     1  UNL1        0.2542
     16 C         141.5620  139.6943  162.1587 C.ar    1  UNL1        0.0215
     17 C         142.8419  139.3089  162.8394 C.ar    1  UNL1       -0.0007
     18 C         143.8003  138.3751  162.1614 C.ar    1  UNL1        0.0030
     19 C         143.4787  137.8267  160.8028 C.ar    1  UNL1        0.0402
     20 C         142.1987  138.2121  160.1221 C.ar    1  UNL1        0.1761
     21 C         141.2404  139.1459  160.8001 C.ar    1  UNL1        0.1728
     22 O         140.0649  139.3449  159.8899 O.3     1  UNL1       -0.4349
     23 C         140.2967  138.5342  158.6494 C.3     1  UNL1        0.4294
     24 O         141.6155  137.8340  158.7929 O.3     1  UNL1       -0.4346
     25 C         139.8642  141.6569  162.0338 C.3     1  UNL1        0.1162
     26 O         138.5864  140.8986  162.2390 O.3     1  UNL1       -0.3820
     27 H         137.8601  141.3624  161.7937 H       1  UNL1        0.2107
     28 C         142.9863  143.3292  160.2432 C.ar    1  UNL1        0.2272
     29 C         141.7085  142.5708  160.4484 C.ar    1  UNL1        0.0559
     30 C         141.1421  142.4152  161.8286 C.ar    1  UNL1        0.0117
     31 C         141.8535  143.0180  163.0036 C.ar    1  UNL1        0.0560
     32 C         143.1313  143.7763  162.7984 C.ar    1  UNL1        0.2319
     33 N         143.6977  143.9319  161.4182 N.ar    1  UNL1       -0.1766
     34 C         144.6723  142.5965  158.4072 C.3     1  UNL1        0.2542
     35 O         143.5528  143.4847  158.8630 O.3     1  UNL1       -0.4561
     36 O         143.8427  144.3790  163.9734 O.3     1  UNL1       -0.4067
     37 C         144.4826  143.4909  164.9990 C.3     1  UNL1        0.5097
     38 F         145.2198  144.0936  166.1580 F       1  UNL1       -0.1549
     39 F         144.3853  142.0000  164.8655 F       1  UNL1       -0.1549
     40 C         139.1248  142.6858  161.2309 C.3     1  UNL1        0.0491
     41 C         138.0654  143.5253  161.8812 C.3     1  UNL1        0.0750
     42 N         138.2556  144.0177  163.2852 N.3     1  UNL1       -0.2702
     43 C         137.5580  143.3310  164.4218 C.3     1  UNL1        0.0897
     44 C         139.1433  145.1968  163.5528 C.3     1  UNL1        0.0897
@<TRIPOS>BOND
     1    34    35    1
     2    35    28    1
     3    28    29   ar
     4    29    30   ar
     5    30    25    1
     6    25    26    1
     7    25    40    1
     8    40    41    1
     9    41    42    1
    10    42    43    1
    11    42    44    1
    12    25     1    1
    13     1     2    1
    14     2     3   ar
    15     3     4   ar
    16     4     5   ar
    17     5     6   ar
    18     6    12    1
    19    12    13    3
    20     6     7   ar
    21     7     8   ar
    22     8     9   ar
    23     9    10   ar
    24    10    11   ar
    25    11    14    1
    26    14    15    1
    27     1    16    1
    28    16    17   ar
    29    17    18   ar
    30    18    19   ar
    31    19    20   ar
    32    20    21   ar
    33    21    22    1
    34    22    23    1
    35    23    24    1
    36    30    31   ar
    37    31    32   ar
    38    32    36    1
    39    36    37    1
    40    37    38    1
    41    37    39    1
    42    32    33   ar
    43    33    28   ar
    44    11     2   ar
    45    21    16   ar
    46     9     4   ar
    47    24    20    1
    48    26    27    1
@<TRIPOS>MOLECULE
*****
 44 48 0 0 0
SMALL
GASTEIGER

@<TRIPOS>ATOM
      1 C         141.4769  142.2549  162.4572 C.3     1  UNL1        0.0807
      2 C         141.9449  142.1975  163.8812 C.ar    1  UNL1        0.0375
      3 C         141.0667  141.5918  164.9355 C.ar    1  UNL1        0.0023
      4 C         141.5347  141.5344  166.3595 C.ar    1  UNL1        0.0183
      5 C         140.6564  140.9287  167.4139 C.ar    1  UNL1        0.0118
      6 C         141.1245  140.8713  168.8378 C.ar    1  UNL1        0.0685
      7 C         142.4709  141.4197  169.2074 C.ar    1  UNL1        0.0118
      8 C         143.3492  142.0254  168.1530 C.ar    1  UNL1        0.0199
      9 C         142.8811  142.0828  166.7291 C.ar    1  UNL1        0.0844
     10 N         143.7594  142.6885  165.6747 N.ar    1  UNL1       -0.2119
     11 C         143.2913  142.7459  164.2508 C.ar    1  UNL1        0.2211
     12 C         140.2462  140.2656  169.8922 C.1     1  UNL1        0.1004
     13 N         139.3680  139.6599  170.9466 N.1     1  UNL1       -0.1908
     14 O         144.1696  143.3516  163.1963 O.3     1  UNL1       -0.4563
     15 C         144.0998  144.8237  162.9169 C.3     1  UNL1        0.2542
     16 C         142.3312  141.6860  161.3634 C.ar    1  UNL1        0.0215
     17 C         142.6691  142.5215  160.1644 C.ar    1  UNL1       -0.0007
     18 C         143.5235  141.9527  159.0705 C.ar    1  UNL1        0.0030
     19 C         144.0400  140.5483  159.1757 C.ar    1  UNL1        0.0402
     20 C         143.7020  139.7128  160.3749 C.ar    1  UNL1        0.1761
     21 C         142.8477  140.2816  161.4686 C.ar    1  UNL1        0.1728
     22 O         142.6817  139.2275  162.5228 O.3     1  UNL1       -0.4349
     23 C         143.4335  138.0072  162.0805 C.3     1  UNL1        0.4294
     24 O         144.0641  138.3072  160.7530 O.3     1  UNL1       -0.4346
     25 C         140.1544  142.8811  162.1271 C.3     1  UNL1        0.1162
     26 O         140.6983  144.2276  162.5028 O.3     1  UNL1       -0.3820
     27 H         140.0092  144.8996  162.3826 H       1  UNL1        0.2107
     28 C         138.7722  139.8724  159.9391 C.ar    1  UNL1        0.2272
     29 C         139.3160  141.2189  160.3149 C.ar    1  UNL1        0.0559
     30 C         139.6106  141.5346  161.7513 C.ar    1  UNL1        0.0117
     31 C         139.3614  140.5037  162.8121 C.ar    1  UNL1        0.0560
     32 C         138.8175  139.1572  162.4363 C.ar    1  UNL1        0.2319
     33 N         138.5229  138.8416  160.9998 N.ar    1  UNL1       -0.1766
     34 C         137.9730  140.6322  157.5866 C.3     1  UNL1        0.2542
     35 O         138.4776  139.5568  158.5025 O.3     1  UNL1       -0.4561
     36 O         138.5683  138.1264  163.4971 O.3     1  UNL1       -0.4067
     37 C         138.8936  138.4304  164.9295 C.3     1  UNL1        0.5097
     38 F         137.8500  139.0301  165.8246 F       1  UNL1       -0.1549
     39 F         140.2625  138.1348  165.4668 F       1  UNL1       -0.1549
     40 C         138.8320  143.5073  161.7970 C.3     1  UNL1        0.0491
     41 C         138.0949  144.2961  162.8383 C.3     1  UNL1        0.0750
     42 N         138.1594  143.8815  164.2784 N.3     1  UNL1       -0.2702
     43 C         138.8494  144.7582  165.2811 C.3     1  UNL1        0.0897
     44 C         137.5339  142.5903  164.7159 C.3     1  UNL1        0.0897
@<TRIPOS>BOND
     1    34    35    1
     2    35    28    1
     3    28    29   ar
     4    29    30   ar
     5    30    25    1
     6    25    26    1
     7    25    40    1
     8    40    41    1
     9    41    42    1
    10    42    43    1
    11    42    44    1
    12    25     1    1
    13     1     2    1
    14     2     3   ar
    15     3     4   ar
    16     4     5   ar
    17     5     6   ar
    18     6    12    1
    19    12    13    3
    20     6     7   ar
    21     7     8   ar
    22     8     9   ar
    23     9    10   ar
    24    10    11   ar
    25    11    14    1
    26    14    15    1
    27     1    16    1
    28    16    17   ar
    29    17    18   ar
    30    18    19   ar
    31    19    20   ar
    32    20    21   ar
    33    21    22    1
    34    22    23    1
    35    23    24    1
    36    30    31   ar
    37    31    32   ar
    38    32    36    1
    39    36    37    1
    40    37    38    1
    41    37    39    1
    42    32    33   ar
    43    33    28   ar
    44    11     2   ar
    45    21    16   ar
    46     9     4   ar
    47    24    20    1
    48    26    27    1
@<TRIPOS>MOLECULE
*****
 44 48 0 0 0
SMALL
GASTEIGER

@<TRIPOS>ATOM
      1 C         140.6960  141.4633  161.7441 C.3     1  UNL1        0.0807
      2 C         140.6303  141.1111  163.2008 C.ar    1  UNL1        0.0375
      3 C         141.6152  141.7080  164.1618 C.ar    1  UNL1        0.0023
      4 C         141.5496  141.3558  165.6185 C.ar    1  UNL1        0.0183
      5 C         142.5345  141.9527  166.5795 C.ar    1  UNL1        0.0118
      6 C         142.4688  141.6005  168.0361 C.ar    1  UNL1        0.0685
      7 C         141.4182  140.6514  168.5316 C.ar    1  UNL1        0.0118
      8 C         140.4333  140.0546  167.5705 C.ar    1  UNL1        0.0199
      9 C         140.4990  140.4068  166.1140 C.ar    1  UNL1        0.0844
     10 N         139.5140  139.8099  165.1528 N.ar    1  UNL1       -0.2119
     11 C         139.5797  140.1621  163.6963 C.ar    1  UNL1        0.2211
     12 C         143.4537  142.1974  168.9972 C.1     1  UNL1        0.1004
     13 N         144.4386  142.7943  169.9583 N.1     1  UNL1       -0.1908
     14 O         138.5948  139.5652  162.7351 O.3     1  UNL1       -0.4563
     15 C         138.5670  138.0818  162.5144 C.3     1  UNL1        0.2542
     16 C         140.7831  140.3773  160.7131 C.ar    1  UNL1        0.0215
     17 C         139.8039  140.3410  159.5775 C.ar    1  UNL1       -0.0007
     18 C         139.8910  139.2550  158.5464 C.ar    1  UNL1        0.0030
     19 C         140.9574  138.2053  158.6511 C.ar    1  UNL1        0.0402
     20 C         141.9367  138.2416  159.7868 C.ar    1  UNL1        0.1761
     21 C         141.8495  139.3276  160.8178 C.ar    1  UNL1        0.1728
     22 O         142.9458  139.1068  161.8174 O.3     1  UNL1       -0.4349
     23 C         143.7105  137.8843  161.4043 C.3     1  UNL1        0.4294
     24 O         143.0868  137.3496  160.1492 O.3     1  UNL1       -0.4346
     25 C         140.6745  142.9015  161.3186 C.3     1  UNL1        0.1162
     26 O         139.2663  143.0286  161.8193 O.3     1  UNL1       -0.3820
     27 H         138.9496  143.9329  161.6678 H       1  UNL1        0.2107
     28 C         143.7837  142.8035  158.8542 C.ar    1  UNL1        0.2272
     29 C         142.3755  142.9306  159.3550 C.ar    1  UNL1        0.0559
     30 C         142.0827  142.7744  160.8178 C.ar    1  UNL1        0.0117
     31 C         143.1981  142.4910  161.7798 C.ar    1  UNL1        0.0560
     32 C         144.6063  142.3639  161.2790 C.ar    1  UNL1        0.2319
     33 N         144.8991  142.5201  159.8162 N.ar    1  UNL1       -0.1766
     34 C         145.1837  142.1693  156.7594 C.3     1  UNL1        0.2542
     35 O         144.0764  142.9597  157.3913 O.3     1  UNL1       -0.4561
     36 O         145.7218  142.0805  162.2411 O.3     1  UNL1       -0.4067
     37 C         145.4109  141.6769  163.6519 C.3     1  UNL1        0.5097
     38 F         145.2892  142.7217  164.7214 F       1  UNL1       -0.1549
     39 F         145.2218  140.2286  163.9933 F       1  UNL1       -0.1549
     40 C         140.6530  144.3397  160.8930 C.3     1  UNL1        0.0491
     41 C         140.3786  145.4161  161.9010 C.3     1  UNL1        0.0750
     42 N         140.7597  145.2132  163.3375 N.3     1  UNL1       -0.2702
     43 C         139.7066  144.8844  164.3536 C.3     1  UNL1        0.0897
     44 C         142.1941  145.3393  163.7578 C.3     1  UNL1        0.0897
@<TRIPOS>BOND
     1    34    35    1
     2    35    28    1
     3    28    29   ar
     4    29    30   ar
     5    30    25    1
     6    25    26    1
     7    25    40    1
     8    40    41    1
     9    41    42    1
    10    42    43    1
    11    42    44    1
    12    25     1    1
    13     1     2    1
    14     2     3   ar
    15     3     4   ar
    16     4     5   ar
    17     5     6   ar
    18     6    12    1
    19    12    13    3
    20     6     7   ar
    21     7     8   ar
    22     8     9   ar
    23     9    10   ar
    24    10    11   ar
    25    11    14    1
    26    14    15    1
    27     1    16    1
    28    16    17   ar
    29    17    18   ar
    30    18    19   ar
    31    19    20   ar
    32    20    21   ar
    33    21    22    1
    34    22    23    1
    35    23    24    1
    36    30    31   ar
    37    31    32   ar
    38    32    36    1
    39    36    37    1
    40    37    38    1
    41    37    39    1
    42    32    33   ar
    43    33    28   ar
    44    11     2   ar
    45    21    16   ar
    46     9     4   ar
    47    24    20    1
    48    26    27    1
@<TRIPOS>MOLECULE
*****
 44 48 0 0 0
SMALL
GASTEIGER

@<TRIPOS>ATOM
      1 C         142.0540  142.1965  162.2943 C.3     1  UNL1        0.0807
      2 C         142.2772  142.1466  163.7768 C.ar    1  UNL1        0.0375
      3 C         141.1849  141.6629  164.6839 C.ar    1  UNL1        0.0023
      4 C         141.4081  141.6129  166.1664 C.ar    1  UNL1        0.0183
      5 C         140.3158  141.1292  167.0735 C.ar    1  UNL1        0.0118
      6 C         140.5391  141.0792  168.5559 C.ar    1  UNL1        0.0685
      7 C         141.8546  141.5131  169.1312 C.ar    1  UNL1        0.0118
      8 C         142.9470  141.9968  168.2242 C.ar    1  UNL1        0.0199
      9 C         142.7237  142.0467  166.7418 C.ar    1  UNL1        0.0844
     10 N         143.8160  142.5305  165.8346 N.ar    1  UNL1       -0.2119
     11 C         143.5928  142.5804  164.3522 C.ar    1  UNL1        0.2211
     12 C         139.4467  140.5955  169.4630 C.1     1  UNL1        0.1004
     13 N         138.3544  140.1117  170.3701 N.1     1  UNL1       -0.1908
     14 O         144.6851  143.0642  163.4451 O.3     1  UNL1       -0.4563
     15 C         145.6389  142.0832  162.8303 C.3     1  UNL1        0.2542
     16 C         142.3624  140.9967  161.4486 C.ar    1  UNL1        0.0215
     17 C         143.1561  141.1535  160.1855 C.ar    1  UNL1       -0.0007
     18 C         143.4645  139.9537  159.3397 C.ar    1  UNL1        0.0030
     19 C         142.9793  138.5971  159.7571 C.ar    1  UNL1        0.0402
     20 C         142.1855  138.4404  161.0202 C.ar    1  UNL1        0.1761
     21 C         141.8771  139.6402  161.8660 C.ar    1  UNL1        0.1728
     22 O         141.0795  139.1799  163.0500 O.3     1  UNL1       -0.4349
     23 C         140.8950  137.6957  162.9361 C.3     1  UNL1        0.4294
     24 O         141.5786  137.2386  161.6815 O.3     1  UNL1       -0.4346
     25 C         141.5223  143.4463  161.6576 C.3     1  UNL1        0.1162
     26 O         142.9142  143.8322  161.2529 O.3     1  UNL1       -0.3820
     27 H         142.8900  144.6774  160.7775 H       1  UNL1        0.2107
     28 C         138.0553  141.5201  161.7961 C.ar    1  UNL1        0.2272
     29 C         139.4471  141.9060  161.3914 C.ar    1  UNL1        0.0559
     30 C         140.1304  143.0604  162.0624 C.ar    1  UNL1        0.0117
     31 C         139.4219  143.8290  163.1381 C.ar    1  UNL1        0.0560
     32 C         138.0300  143.4431  163.5428 C.ar    1  UNL1        0.2319
     33 N         137.3467  142.2886  162.8718 N.ar    1  UNL1       -0.1766
     34 C         137.7171  138.9593  161.5165 C.3     1  UNL1        0.2542
     35 O         137.3720  140.3656  161.1250 O.3     1  UNL1       -0.4561
     36 O         137.3215  144.2117  164.6186 O.3     1  UNL1       -0.4067
     37 C         138.0977  144.7799  165.7696 C.3     1  UNL1        0.5097
     38 F         137.5480  145.9405  166.5448 F       1  UNL1       -0.1549
     39 F         139.4236  144.1875  166.1454 F       1  UNL1       -0.1549
     40 C         140.9907  144.6961  161.0209 C.3     1  UNL1        0.0491
     41 C         141.5051  145.1326  159.6813 C.3     1  UNL1        0.0750
     42 N         141.4441  144.1946  158.5124 N.3     1  UNL1       -0.2702
     43 C         142.6712  143.9440  157.6870 C.3     1  UNL1        0.0897
     44 C         140.1560  143.5070  158.1690 C.3     1  UNL1        0.0897
@<TRIPOS>BOND
     1    34    35    1
     2    35    28    1
     3    28    29   ar
     4    29    30   ar
     5    30    25    1
     6    25    26    1
     7    25    40    1
     8    40    41    1
     9    41    42    1
    10    42    43    1
    11    42    44    1
    12    25     1    1
    13     1     2    1
    14     2     3   ar
    15     3     4   ar
    16     4     5   ar
    17     5     6   ar
    18     6    12    1
    19    12    13    3
    20     6     7   ar
    21     7     8   ar
    22     8     9   ar
    23     9    10   ar
    24    10    11   ar
    25    11    14    1
    26    14    15    1
    27     1    16    1
    28    16    17   ar
    29    17    18   ar
    30    18    19   ar
    31    19    20   ar
    32    20    21   ar
    33    21    22    1
    34    22    23    1
    35    23    24    1
    36    30    31   ar
    37    31    32   ar
    38    32    36    1
    39    36    37    1
    40    37    38    1
    41    37    39    1
    42    32    33   ar
    43    33    28   ar
    44    11     2   ar
    45    21    16   ar
    46     9     4   ar
    47    24    20    1
    48    26    27    1
@<TRIPOS>MOLECULE
*****
 44 48 0 0 0
SMALL
GASTEIGER

@<TRIPOS>ATOM
      1 C         140.3741  141.2536  162.4077 C.3     1  UNL1        0.0807
      2 C         140.3816  141.7189  163.8338 C.ar    1  UNL1        0.0375
      3 C         141.1596  140.9587  164.8666 C.ar    1  UNL1        0.0023
      4 C         141.1671  141.4240  166.2927 C.ar    1  UNL1        0.0183
      5 C         141.9450  140.6638  167.3256 C.ar    1  UNL1        0.0118
      6 C         141.9525  141.1291  168.7515 C.ar    1  UNL1        0.0685
      7 C         141.1821  142.3547  169.1446 C.ar    1  UNL1        0.0118
      8 C         140.4042  143.1149  168.1117 C.ar    1  UNL1        0.0199
      9 C         140.3967  142.6496  166.6858 C.ar    1  UNL1        0.0844
     10 N         139.6187  143.4098  165.6528 N.ar    1  UNL1       -0.2119
     11 C         139.6112  142.9444  164.2269 C.ar    1  UNL1        0.2211
     12 C         142.7305  140.3689  169.7845 C.1     1  UNL1        0.1004
     13 N         143.5084  139.6088  170.8174 N.1     1  UNL1       -0.1908
     14 O         138.8333  143.7047  163.1939 O.3     1  UNL1       -0.4563
     15 C         139.2352  145.1037  162.8317 C.3     1  UNL1        0.2542
     16 C         140.8257  142.1767  161.3152 C.ar    1  UNL1        0.0215
     17 C         142.1643  142.8475  161.4057 C.ar    1  UNL1       -0.0007
     18 C         142.6160  143.7708  160.3131 C.ar    1  UNL1        0.0030
     19 C         141.7291  144.0232  159.1300 C.ar    1  UNL1        0.0402
     20 C         140.3904  143.3523  159.0396 C.ar    1  UNL1        0.1761
     21 C         139.9388  142.4291  160.1321 C.ar    1  UNL1        0.1728
     22 O         138.5772  141.9141  159.7704 O.3     1  UNL1       -0.4349
     23 C         138.1874  142.5190  158.4543 C.3     1  UNL1        0.4294
     24 O         139.3081  143.4079  158.0026 O.3     1  UNL1       -0.4346
     25 C         139.9149  139.8650  162.0744 C.3     1  UNL1        0.1162
     26 O         138.5192  140.2274  162.4877 O.3     1  UNL1       -0.3820
     27 H         137.9384  139.4589  162.3735 H       1  UNL1        0.2107
     28 C         143.0044  138.8209  159.8128 C.ar    1  UNL1        0.2272
     29 C         141.6087  139.1832  160.2262 C.ar    1  UNL1        0.0559
     30 C         141.3106  139.5027  161.6610 C.ar    1  UNL1        0.0117
     31 C         142.4080  139.4599  162.6826 C.ar    1  UNL1        0.0560
     32 C         143.8037  139.0976  162.2693 C.ar    1  UNL1        0.2319
     33 N         144.1019  138.7781  160.8344 N.ar    1  UNL1       -0.1766
     34 C         142.5808  137.3783  157.6940 C.3     1  UNL1        0.2542
     35 O         143.3026  138.5014  158.3778 O.3     1  UNL1       -0.4561
     36 O         144.9012  139.0548  163.2909 O.3     1  UNL1       -0.4067
     37 C         144.6379  139.5145  164.6943 C.3     1  UNL1        0.5097
     38 F         144.4658  138.5083  165.7933 F       1  UNL1       -0.1549
     39 F         144.5466  140.9805  164.9985 F       1  UNL1       -0.1549
     40 C         139.4557  138.4765  161.7410 C.3     1  UNL1        0.0491
     41 C         138.8829  137.5982  162.8135 C.3     1  UNL1        0.0750
     42 N         139.4204  137.6745  164.2119 N.3     1  UNL1       -0.2702
     43 C         138.6078  138.3227  165.2933 C.3     1  UNL1        0.0897
     44 C         140.7703  137.1026  164.5288 C.3     1  UNL1        0.0897
@<TRIPOS>BOND
     1    34    35    1
     2    35    28    1
     3    28    29   ar
     4    29    30   ar
     5    30    25    1
     6    25    26    1
     7    25    40    1
     8    40    41    1
     9    41    42    1
    10    42    43    1
    11    42    44    1
    12    25     1    1
    13     1     2    1
    14     2     3   ar
    15     3     4   ar
    16     4     5   ar
    17     5     6   ar
    18     6    12    1
    19    12    13    3
    20     6     7   ar
    21     7     8   ar
    22     8     9   ar
    23     9    10   ar
    24    10    11   ar
    25    11    14    1
    26    14    15    1
    27     1    16    1
    28    16    17   ar
    29    17    18   ar
    30    18    19   ar
    31    19    20   ar
    32    20    21   ar
    33    21    22    1
    34    22    23    1
    35    23    24    1
    36    30    31   ar
    37    31    32   ar
    38    32    36    1
    39    36    37    1
    40    37    38    1
    41    37    39    1
    42    32    33   ar
    43    33    28   ar
    44    11     2   ar
    45    21    16   ar
    46     9     4   ar
    47    24    20    1
    48    26    27    1
@<TRIPOS>MOLECULE
*****
 44 48 0 0 0
SMALL
GASTEIGER

@<TRIPOS>ATOM
      1 C         142.0223  142.2017  162.3870 C.3     1  UNL1        0.0807
      2 C         142.2340  142.1387  163.8707 C.ar    1  UNL1        0.0375
      3 C         141.1309  141.6575  164.7659 C.ar    1  UNL1        0.0023
      4 C         141.3426  141.5945  166.2496 C.ar    1  UNL1        0.0183
      5 C         140.2394  141.1132  167.1448 C.ar    1  UNL1        0.0118
      6 C         140.4512  141.0502  168.6284 C.ar    1  UNL1        0.0685
      7 C         141.7660  141.4685  169.2168 C.ar    1  UNL1        0.0118
      8 C         142.8691  141.9498  168.3216 C.ar    1  UNL1        0.0199
      9 C         142.6574  142.0128  166.8380 C.ar    1  UNL1        0.0844
     10 N         143.7605  142.4941  165.9427 N.ar    1  UNL1       -0.2119
     11 C         143.5488  142.5570  164.4591 C.ar    1  UNL1        0.2211
     12 C         139.3480  140.5689  169.5237 C.1     1  UNL1        0.1004
     13 N         138.2449  140.0877  170.4190 N.1     1  UNL1       -0.1908
     14 O         144.6520  143.0383  163.5638 O.3     1  UNL1       -0.4563
     15 C         145.6411  142.0613  163.0007 C.3     1  UNL1        0.2542
     16 C         142.2930  140.9946  161.5388 C.ar    1  UNL1        0.0215
     17 C         143.1466  141.1165  160.3114 C.ar    1  UNL1       -0.0007
     18 C         143.4174  139.9093  159.4632 C.ar    1  UNL1        0.0030
     19 C         142.8346  138.5802  159.8425 C.ar    1  UNL1        0.0402
     20 C         141.9810  138.4583  161.0699 C.ar    1  UNL1        0.1761
     21 C         141.7103  139.6655  161.9181 C.ar    1  UNL1        0.1728
     22 O         140.8379  139.2417  163.0624 O.3     1  UNL1       -0.4349
     23 C         140.5695  137.7727  162.9214 C.3     1  UNL1        0.4294
     24 O         141.2760  137.2885  161.6900 O.3     1  UNL1       -0.4346
     25 C         141.5398  143.4719  161.7515 C.3     1  UNL1        0.1162
     26 O         142.9451  143.8015  161.3433 O.3     1  UNL1       -0.3820
     27 H         142.9538  144.6470  160.8679 H       1  UNL1        0.2107
     28 C         138.0772  143.5674  163.6883 C.ar    1  UNL1        0.2272
     29 C         139.4825  143.8970  163.2801 C.ar    1  UNL1        0.0559
     30 C         140.1345  143.1424  162.1597 C.ar    1  UNL1        0.0117
     31 C         139.3813  142.0583  161.4475 C.ar    1  UNL1        0.0560
     32 C         137.9761  141.7287  161.8557 C.ar    1  UNL1        0.2319
     33 N         137.3240  142.4833  162.9761 N.ar    1  UNL1       -0.1766
     34 C         138.2689  145.0328  165.8251 C.3     1  UNL1        0.2542
     35 O         137.4252  144.3220  164.8088 O.3     1  UNL1       -0.4561
     36 O         137.2229  140.6446  161.1433 O.3     1  UNL1       -0.4067
     37 C         137.8283  139.2795  161.0014 C.3     1  UNL1        0.5097
     38 F         138.8782  139.0294  159.9597 F       1  UNL1       -0.1549
     39 F         137.3839  138.1646  161.9011 F       1  UNL1       -0.1549
     40 C         141.0574  144.7421  161.1161 C.3     1  UNL1        0.0491
     41 C         141.5301  145.1209  159.7438 C.3     1  UNL1        0.0750
     42 N         141.4422  144.1307  158.6205 N.3     1  UNL1       -0.2702
     43 C         140.1221  143.5121  158.2675 C.3     1  UNL1        0.0897
     44 C         142.6745  143.7593  157.8501 C.3     1  UNL1        0.0897
@<TRIPOS>BOND
     1    34    35    1
     2    35    28    1
     3    28    29   ar
     4    29    30   ar
     5    30    25    1
     6    25    26    1
     7    25    40    1
     8    40    41    1
     9    41    42    1
    10    42    43    1
    11    42    44    1
    12    25     1    1
    13     1     2    1
    14     2     3   ar
    15     3     4   ar
    16     4     5   ar
    17     5     6   ar
    18     6    12    1
    19    12    13    3
    20     6     7   ar
    21     7     8   ar
    22     8     9   ar
    23     9    10   ar
    24    10    11   ar
    25    11    14    1
    26    14    15    1
    27     1    16    1
    28    16    17   ar
    29    17    18   ar
    30    18    19   ar
    31    19    20   ar
    32    20    21   ar
    33    21    22    1
    34    22    23    1
    35    23    24    1
    36    30    31   ar
    37    31    32   ar
    38    32    36    1
    39    36    37    1
    40    37    38    1
    41    37    39    1
    42    32    33   ar
    43    33    28   ar
    44    11     2   ar
    45    21    16   ar
    46     9     4   ar
    47    24    20    1
    48    26    27    1
