@<TRIPOS>MOLECULE
*****
 29 31 0 0 0
SMALL
GASTEIGER

@<TRIPOS>ATOM
      1 C         139.2685  141.1036  162.5535 C.ar    1  UNL1        0.1030
      2 C         138.3450  140.0759  161.9695 C.ar    1  UNL1        0.0414
      3 C         138.1979  138.7377  162.6308 C.ar    1  UNL1        0.1034
      4 N         138.9742  138.4271  163.8762 N.ar    1  UNL1       -0.2120
      5 C         139.8977  139.4547  164.4602 C.ar    1  UNL1        0.2207
      6 N         140.0449  140.7930  163.7988 N.ar    1  UNL1       -0.2120
      7 C         139.6502  146.3150  161.7939 C.3     1  UNL1        0.0718
      8 C         139.5912  144.8373  161.5430 C.ar    1  UNL1        0.1208
      9 N         139.6934  144.1652  160.2058 N.ar    1  UNL1       -0.2293
     10 C         139.5849  142.6848  160.4216 C.ar    1  UNL1        0.1188
     11 C         139.4157  142.4419  161.8921 C.ar    1  UNL1        0.0981
     12 N         139.4196  143.7722  162.5852 N.ar    1  UNL1       -0.3155
     13 C         139.2769  143.9978  164.0612 C.3     1  UNL1        0.0868
     14 C         140.4984  144.1050  164.9251 C.3     1  UNL1        0.0245
     15 C         137.9126  144.1162  164.6734 C.3     1  UNL1        0.0245
     16 N         140.6740  139.1441  165.7055 N.pl3   1  UNL1       -0.2825
     17 H         141.2463  138.3439  165.7420 H       1  UNL1        0.1551
     18 C         140.5784  140.0528  166.8951 C.ar    1  UNL1        0.0527
     19 C         141.5548  141.1798  167.0584 C.ar    1  UNL1        0.0150
     20 C         141.4592  142.0885  168.2480 C.ar    1  UNL1        0.0080
     21 C         140.3873  141.8701  169.2743 C.ar    1  UNL1        0.0806
     22 C         139.4110  140.7431  169.1111 C.ar    1  UNL1        0.1457
     23 F         138.3391  140.5248  170.1374 F       1  UNL1       -0.2040
     24 C         139.5066  139.8344  167.9214 C.ar    1  UNL1        0.0444
     25 C         140.2918  142.7788  170.4640 C.2     1  UNL1        0.2449
     26 N         140.0438  144.2453  170.2695 N.am    1  UNL1       -0.3253
     27 O         140.4442  142.2210  171.8480 O.2     1  UNL1       -0.2703
     28 H         139.9437  144.6115  169.3611 H       1  UNL1        0.1453
     29 H         139.9811  144.8417  171.0503 H       1  UNL1        0.1453
@<TRIPOS>BOND
     1     7     8    1
     2     8     9   ar
     3     9    10   ar
     4    10    11   ar
     5    11     1    1
     6     1     2   ar
     7     2     3   ar
     8     3     4   ar
     9     4     5   ar
    10     5    16    1
    11    16    18    1
    12    18    19   ar
    13    19    20   ar
    14    20    21   ar
    15    21    25    1
    16    25    26   am
    17    25    27    2
    18    21    22   ar
    19    22    23    1
    20    22    24   ar
    21     5     6   ar
    22    11    12   ar
    23    12    13    1
    24    13    14    1
    25    13    15    1
    26    12     8   ar
    27     6     1   ar
    28    24    18   ar
    29    16    17    1
    30    26    28    1
    31    26    29    1
@<TRIPOS>MOLECULE
*****
 29 31 0 0 0
SMALL
GASTEIGER

@<TRIPOS>ATOM
      1 C         140.0019  141.0743  162.9537 C.ar    1  UNL1        0.1030
      2 C         139.9931  140.0138  161.8930 C.ar    1  UNL1        0.0414
      3 C         140.5010  138.6372  162.2045 C.ar    1  UNL1        0.1034
      4 N         141.0177  138.3212  163.5768 N.ar    1  UNL1       -0.2120
      5 C         141.0266  139.3817  164.6375 C.ar    1  UNL1        0.2207
      6 N         140.5186  140.7582  164.3260 N.ar    1  UNL1       -0.2120
      7 C         139.8321  146.2479  161.9116 C.3     1  UNL1        0.0718
      8 C         139.4159  144.8289  162.1632 C.ar    1  UNL1        0.1208
      9 N         138.0087  144.3095  162.1625 N.ar    1  UNL1       -0.2293
     10 C         138.0569  142.8398  162.4586 C.ar    1  UNL1        0.1188
     11 C         139.4940  142.4509  162.6422 C.ar    1  UNL1        0.0981
     12 N         140.3338  143.6802  162.4597 N.ar    1  UNL1       -0.3155
     13 C         141.8291  143.7489  162.5566 C.3     1  UNL1        0.0868
     14 C         142.6706  143.5361  161.3333 C.3     1  UNL1        0.0245
     15 C         142.4830  144.0303  163.8770 C.3     1  UNL1        0.0245
     16 N         141.5433  139.0657  166.0098 N.pl3   1  UNL1       -0.2825
     17 H         142.0751  138.2509  166.1599 H       1  UNL1        0.1551
     18 C         141.2498  139.9910  167.1532 C.ar    1  UNL1        0.0527
     19 C         139.9262  139.9192  167.8554 C.ar    1  UNL1        0.0150
     20 C         139.6327  140.8446  168.9989 C.ar    1  UNL1        0.0080
     21 C         140.6627  141.8417  169.4402 C.ar    1  UNL1        0.0806
     22 C         141.9862  141.9135  168.7381 C.ar    1  UNL1        0.1457
     23 F         143.0163  142.9107  169.1794 F       1  UNL1       -0.2040
     24 C         142.2798  140.9881  167.5945 C.ar    1  UNL1        0.0444
     25 C         140.3691  142.7671  170.5837 C.2     1  UNL1        0.2449
     26 N         140.0350  144.2051  170.3181 N.am    1  UNL1       -0.3253
     27 O         140.4097  142.2544  171.9928 O.2     1  UNL1       -0.2703
     28 H         140.0084  144.5415  169.3933 H       1  UNL1        0.1453
     29 H         139.8424  144.8124  171.0686 H       1  UNL1        0.1453
@<TRIPOS>BOND
     1     7     8    1
     2     8     9   ar
     3     9    10   ar
     4    10    11   ar
     5    11     1    1
     6     1     2   ar
     7     2     3   ar
     8     3     4   ar
     9     4     5   ar
    10     5    16    1
    11    16    18    1
    12    18    19   ar
    13    19    20   ar
    14    20    21   ar
    15    21    25    1
    16    25    26   am
    17    25    27    2
    18    21    22   ar
    19    22    23    1
    20    22    24   ar
    21     5     6   ar
    22    11    12   ar
    23    12    13    1
    24    13    14    1
    25    13    15    1
    26    12     8   ar
    27     6     1   ar
    28    24    18   ar
    29    16    17    1
    30    26    28    1
    31    26    29    1
@<TRIPOS>MOLECULE
*****
 29 31 0 0 0
SMALL
GASTEIGER

@<TRIPOS>ATOM
      1 C         140.1679  141.0029  162.6244 C.ar    1  UNL1        0.1030
      2 C         139.3834  139.9347  161.9220 C.ar    1  UNL1        0.0414
      3 C         139.2432  138.5764  162.5427 C.ar    1  UNL1        0.1034
      4 N         139.8874  138.2863  163.8658 N.ar    1  UNL1       -0.2120
      5 C         140.6719  139.3545  164.5683 C.ar    1  UNL1        0.2207
      6 N         140.8122  140.7128  163.9476 N.ar    1  UNL1       -0.2120
      7 C         139.8704  146.2137  161.8246 C.3     1  UNL1        0.0718
      8 C         140.1714  144.7564  161.6361 C.ar    1  UNL1        0.1208
      9 N         140.8766  144.1466  160.4609 N.ar    1  UNL1       -0.2293
     10 C         140.9611  142.6663  160.6881 C.ar    1  UNL1        0.1188
     11 C         140.3081  142.3612  162.0037 C.ar    1  UNL1        0.0981
     12 N         139.8201  143.6530  162.5895 N.ar    1  UNL1       -0.3155
     13 C         139.1062  143.8132  163.8989 C.3     1  UNL1        0.0868
     14 C         137.6125  143.9473  163.9274 C.3     1  UNL1        0.0245
     15 C         139.8861  143.8394  165.1801 C.3     1  UNL1        0.0245
     16 N         141.3162  139.0644  165.8915 N.pl3   1  UNL1       -0.2825
     17 H         141.8882  138.2701  165.9968 H       1  UNL1        0.1551
     18 C         141.0890  139.9845  167.0541 C.ar    1  UNL1        0.0527
     19 C         139.8019  139.9193  167.8217 C.ar    1  UNL1        0.0150
     20 C         139.5746  140.8394  168.9843 C.ar    1  UNL1        0.0080
     21 C         140.6344  141.8247  169.3794 C.ar    1  UNL1        0.0806
     22 C         141.9215  141.8899  168.6118 C.ar    1  UNL1        0.1457
     23 F         142.9813  142.8752  169.0068 F       1  UNL1       -0.2040
     24 C         142.1488  140.9697  167.4491 C.ar    1  UNL1        0.0444
     25 C         140.4071  142.7449  170.5421 C.2     1  UNL1        0.2449
     26 N         140.0895  144.1912  170.3030 N.am    1  UNL1       -0.3253
     27 O         140.4975  142.2186  171.9438 O.2     1  UNL1       -0.2703
     28 H         140.0302  144.5366  169.3830 H       1  UNL1        0.1453
     29 H         139.9403  144.7951  171.0661 H       1  UNL1        0.1453
@<TRIPOS>BOND
     1     7     8    1
     2     8     9   ar
     3     9    10   ar
     4    10    11   ar
     5    11     1    1
     6     1     2   ar
     7     2     3   ar
     8     3     4   ar
     9     4     5   ar
    10     5    16    1
    11    16    18    1
    12    18    19   ar
    13    19    20   ar
    14    20    21   ar
    15    21    25    1
    16    25    26   am
    17    25    27    2
    18    21    22   ar
    19    22    23    1
    20    22    24   ar
    21     5     6   ar
    22    11    12   ar
    23    12    13    1
    24    13    14    1
    25    13    15    1
    26    12     8   ar
    27     6     1   ar
    28    24    18   ar
    29    16    17    1
    30    26    28    1
    31    26    29    1
@<TRIPOS>MOLECULE
*****
 29 31 0 0 0
SMALL
GASTEIGER

@<TRIPOS>ATOM
      1 C         141.8190  141.4529  162.5757 C.ar    1  UNL1        0.1030
      2 C         143.1101  140.8820  162.0685 C.ar    1  UNL1        0.0414
      3 C         143.7799  139.7651  162.8128 C.ar    1  UNL1        0.1034
      4 N         143.1586  139.2191  164.0641 N.ar    1  UNL1       -0.2120
      5 C         141.8675  139.7900  164.5712 C.ar    1  UNL1        0.2207
      6 N         141.1978  140.9068  163.8270 N.ar    1  UNL1       -0.2120
      7 C         139.7564  146.1647  161.3818 C.3     1  UNL1        0.0718
      8 C         140.2011  144.7356  161.2826 C.ar    1  UNL1        0.1208
      9 N         140.0357  143.8414  160.0896 N.ar    1  UNL1       -0.2293
     10 C         140.6216  142.5029  160.4288 C.ar    1  UNL1        0.1188
     11 C         141.1492  142.5698  161.8314 C.ar    1  UNL1        0.0981
     12 N         140.8892  143.9496  162.3591 N.ar    1  UNL1       -0.3155
     13 C         141.2535  144.4549  163.7236 C.3     1  UNL1        0.0868
     14 C         140.3028  144.2727  164.8694 C.3     1  UNL1        0.0245
     15 C         142.5686  145.1425  163.9424 C.3     1  UNL1        0.0245
     16 N         141.2463  139.2440  165.8226 N.pl3   1  UNL1       -0.2825
     17 H         140.9925  138.2940  165.8722 H       1  UNL1        0.1551
     18 C         141.0116  140.1453  166.9984 C.ar    1  UNL1        0.0527
     19 C         141.9380  141.2962  167.2579 C.ar    1  UNL1        0.0150
     20 C         141.7033  142.1975  168.4337 C.ar    1  UNL1        0.0080
     21 C         140.5422  141.9479  169.3500 C.ar    1  UNL1        0.0806
     22 C         139.6159  140.7971  169.0906 C.ar    1  UNL1        0.1457
     23 F         138.4548  140.5476  170.0069 F       1  UNL1       -0.2040
     24 C         139.8505  139.8957  167.9147 C.ar    1  UNL1        0.0444
     25 C         140.3076  142.8493  170.5259 C.2     1  UNL1        0.2449
     26 N         140.0019  144.3016  170.3083 N.am    1  UNL1       -0.3253
     27 O         140.3786  142.2983  171.9192 O.2     1  UNL1       -0.2703
     28 H         139.9553  144.6632  169.3938 H       1  UNL1        0.1453
     29 H         139.8479  144.8932  171.0801 H       1  UNL1        0.1453
@<TRIPOS>BOND
     1     7     8    1
     2     8     9   ar
     3     9    10   ar
     4    10    11   ar
     5    11     1    1
     6     1     2   ar
     7     2     3   ar
     8     3     4   ar
     9     4     5   ar
    10     5    16    1
    11    16    18    1
    12    18    19   ar
    13    19    20   ar
    14    20    21   ar
    15    21    25    1
    16    25    26   am
    17    25    27    2
    18    21    22   ar
    19    22    23    1
    20    22    24   ar
    21     5     6   ar
    22    11    12   ar
    23    12    13    1
    24    13    14    1
    25    13    15    1
    26    12     8   ar
    27     6     1   ar
    28    24    18   ar
    29    16    17    1
    30    26    28    1
    31    26    29    1
@<TRIPOS>MOLECULE
*****
 29 31 0 0 0
SMALL
GASTEIGER

@<TRIPOS>ATOM
      1 C         139.6301  139.5801  167.1694 C.ar    1  UNL1        0.1030
      2 C         138.3703  138.8090  166.9082 C.ar    1  UNL1        0.0414
      3 C         138.3187  137.8145  165.7865 C.ar    1  UNL1        0.1034
      4 N         139.5268  137.5910  164.9260 N.ar    1  UNL1       -0.2120
      5 C         140.7866  138.3621  165.1873 C.ar    1  UNL1        0.2207
      6 N         140.8383  139.3566  166.3089 N.ar    1  UNL1       -0.2120
      7 C         140.6032  143.9553  169.9609 C.3     1  UNL1        0.0718
      8 C         140.1290  142.5857  169.5742 C.ar    1  UNL1        0.1208
      9 N         139.3935  141.6245  170.4604 N.ar    1  UNL1       -0.2293
     10 C         139.1171  140.3816  169.6673 C.ar    1  UNL1        0.1188
     11 C         139.6818  140.5747  168.2911 C.ar    1  UNL1        0.0981
     12 N         140.3072  141.9368  168.2336 N.ar    1  UNL1       -0.3155
     13 C         140.9907  142.5437  167.0443 C.3     1  UNL1        0.0868
     14 C         140.1861  143.2643  166.0035 C.3     1  UNL1        0.0245
     15 C         142.4791  142.4299  166.8958 C.3     1  UNL1        0.0245
     16 N         141.9948  138.1387  164.3268 N.pl3   1  UNL1       -0.2825
     17 H         142.3644  137.2321  164.2230 H       1  UNL1        0.1551
     18 C         142.6399  139.2965  163.6245 C.ar    1  UNL1        0.0527
     19 C         141.8651  140.0848  162.6104 C.ar    1  UNL1        0.0150
     20 C         142.5102  141.2426  161.9081 C.ar    1  UNL1        0.0080
     21 C         143.9301  141.6122  162.2199 C.ar    1  UNL1        0.0806
     22 C         144.7050  140.8240  163.2339 C.ar    1  UNL1        0.1457
     23 F         146.1249  141.1936  163.5457 F       1  UNL1       -0.2040
     24 C         144.0599  139.6661  163.9363 C.ar    1  UNL1        0.0444
     25 C         144.5753  142.7701  161.5175 C.2     1  UNL1        0.2449
     26 N         144.6738  144.1015  162.2012 N.am    1  UNL1       -0.3253
     27 O         145.1218  142.5964  160.1315 O.2     1  UNL1       -0.2703
     28 H         144.3151  144.2155  163.1109 H       1  UNL1        0.1453
     29 H         145.0972  144.8614  161.7402 H       1  UNL1        0.1453
@<TRIPOS>BOND
     1     7     8    1
     2     8     9   ar
     3     9    10   ar
     4    10    11   ar
     5    11     1    1
     6     1     2   ar
     7     2     3   ar
     8     3     4   ar
     9     4     5   ar
    10     5    16    1
    11    16    18    1
    12    18    19   ar
    13    19    20   ar
    14    20    21   ar
    15    21    25    1
    16    25    26   am
    17    25    27    2
    18    21    22   ar
    19    22    23    1
    20    22    24   ar
    21     5     6   ar
    22    11    12   ar
    23    12    13    1
    24    13    14    1
    25    13    15    1
    26    12     8   ar
    27     6     1   ar
    28    24    18   ar
    29    16    17    1
    30    26    28    1
    31    26    29    1
@<TRIPOS>MOLECULE
*****
 29 31 0 0 0
SMALL
GASTEIGER

@<TRIPOS>ATOM
      1 C         138.7946  140.2452  163.5394 C.ar    1  UNL1        0.1030
      2 C         138.8020  138.8830  162.9114 C.ar    1  UNL1        0.0414
      3 C         138.8118  137.6581  163.7771 C.ar    1  UNL1        0.1034
      4 N         138.8143  137.7954  165.2708 N.ar    1  UNL1       -0.2120
      5 C         138.8069  139.1576  165.8988 C.ar    1  UNL1        0.2207
      6 N         138.7971  140.3825  165.0331 N.ar    1  UNL1       -0.2120
      7 C         140.0244  144.9492  161.4799 C.3     1  UNL1        0.0718
      8 C         139.3500  143.6323  161.7270 C.ar    1  UNL1        0.1208
      9 N         138.1889  143.0779  160.9558 N.ar    1  UNL1       -0.2293
     10 C         137.8396  141.7416  161.5409 C.ar    1  UNL1        0.1188
     11 C         138.7847  141.4702  162.6737 C.ar    1  UNL1        0.0981
     12 N         139.7181  142.6387  162.7887 N.ar    1  UNL1       -0.3155
     13 C         140.8254  142.7875  163.7896 C.3     1  UNL1        0.0868
     14 C         142.1433  142.1103  163.5565 C.3     1  UNL1        0.0245
     15 C         140.6146  143.6135  165.0239 C.3     1  UNL1        0.0245
     16 N         138.8094  139.2949  167.3925 N.pl3   1  UNL1       -0.2825
     17 H         138.1501  138.8027  167.9332 H       1  UNL1        0.1551
     18 C         139.8165  140.1820  168.0625 C.ar    1  UNL1        0.0527
     19 C         139.5921  140.6394  169.4734 C.ar    1  UNL1        0.0150
     20 C         140.5991  141.5265  170.1433 C.ar    1  UNL1        0.0080
     21 C         141.8306  141.9563  169.4024 C.ar    1  UNL1        0.0806
     22 C         142.0549  141.4990  167.9916 C.ar    1  UNL1        0.1457
     23 F         143.2864  141.9288  167.2507 F       1  UNL1       -0.2040
     24 C         141.0479  140.6118  167.3216 C.ar    1  UNL1        0.0444
     25 C         142.8376  142.8434  170.0725 C.2     1  UNL1        0.2449
     26 N         144.2848  142.4500  170.0973 N.am    1  UNL1       -0.3253
     27 O         142.3974  144.1240  170.7176 O.2     1  UNL1       -0.2703
     28 H         144.5738  141.6094  169.6739 H       1  UNL1        0.1453
     29 H         144.9458  143.0322  170.5371 H       1  UNL1        0.1453
@<TRIPOS>BOND
     1     7     8    1
     2     8     9   ar
     3     9    10   ar
     4    10    11   ar
     5    11     1    1
     6     1     2   ar
     7     2     3   ar
     8     3     4   ar
     9     4     5   ar
    10     5    16    1
    11    16    18    1
    12    18    19   ar
    13    19    20   ar
    14    20    21   ar
    15    21    25    1
    16    25    26   am
    17    25    27    2
    18    21    22   ar
    19    22    23    1
    20    22    24   ar
    21     5     6   ar
    22    11    12   ar
    23    12    13    1
    24    13    14    1
    25    13    15    1
    26    12     8   ar
    27     6     1   ar
    28    24    18   ar
    29    16    17    1
    30    26    28    1
    31    26    29    1
@<TRIPOS>MOLECULE
*****
 29 31 0 0 0
SMALL
GASTEIGER

@<TRIPOS>ATOM
      1 C         138.8510  141.1153  161.6015 C.ar    1  UNL1        0.1030
      2 C         137.8017  140.3793  160.8222 C.ar    1  UNL1        0.0414
      3 C         137.4606  138.9622  161.1762 C.ar    1  UNL1        0.1034
      4 N         138.1687  138.2810  162.3096 N.ar    1  UNL1       -0.2120
      5 C         139.2180  139.0170  163.0889 C.ar    1  UNL1        0.2207
      6 N         139.5591  140.4341  162.7349 N.ar    1  UNL1       -0.2120
      7 C         139.9387  146.2673  161.9953 C.3     1  UNL1        0.0718
      8 C         139.6921  144.9005  161.4285 C.ar    1  UNL1        0.1208
      9 N         139.7422  144.5259  159.9769 N.ar    1  UNL1       -0.2293
     10 C         139.4332  143.0623  159.8650 C.ar    1  UNL1        0.1188
     11 C         139.1921  142.5325  161.2475 C.ar    1  UNL1        0.0981
     12 N         139.3522  143.6685  162.2138 N.ar    1  UNL1       -0.3155
     13 C         139.1991  143.5870  163.7037 C.3     1  UNL1        0.0868
     14 C         137.8368  143.6815  164.3241 C.3     1  UNL1        0.0245
     15 C         140.4086  143.4109  164.5733 C.3     1  UNL1        0.0245
     16 N         139.9261  138.3358  164.2223 N.pl3   1  UNL1       -0.2825
     17 H         140.4516  137.5202  164.0553 H       1  UNL1        0.1551
     18 C         139.8335  138.8973  165.6102 C.ar    1  UNL1        0.0527
     19 C         138.5305  138.8525  166.3520 C.ar    1  UNL1        0.0150
     20 C         138.4379  139.4139  167.7399 C.ar    1  UNL1        0.0080
     21 C         139.6483  140.0202  168.3860 C.ar    1  UNL1        0.0806
     22 C         140.9513  140.0650  167.6442 C.ar    1  UNL1        0.1457
     23 F         142.1616  140.6713  168.2903 F       1  UNL1       -0.2040
     24 C         141.0439  139.5035  166.2563 C.ar    1  UNL1        0.0444
     25 C         139.5557  140.5816  169.7739 C.2     1  UNL1        0.2449
     26 N         139.6781  142.0602  169.9945 N.am    1  UNL1       -0.3253
     27 O         139.3407  139.6644  170.9411 O.2     1  UNL1       -0.2703
     28 H         139.8193  142.6622  169.2284 H       1  UNL1        0.1453
     29 H         139.6173  142.4287  170.9054 H       1  UNL1        0.1453
@<TRIPOS>BOND
     1     7     8    1
     2     8     9   ar
     3     9    10   ar
     4    10    11   ar
     5    11     1    1
     6     1     2   ar
     7     2     3   ar
     8     3     4   ar
     9     4     5   ar
    10     5    16    1
    11    16    18    1
    12    18    19   ar
    13    19    20   ar
    14    20    21   ar
    15    21    25    1
    16    25    26   am
    17    25    27    2
    18    21    22   ar
    19    22    23    1
    20    22    24   ar
    21     5     6   ar
    22    11    12   ar
    23    12    13    1
    24    13    14    1
    25    13    15    1
    26    12     8   ar
    27     6     1   ar
    28    24    18   ar
    29    16    17    1
    30    26    28    1
    31    26    29    1
@<TRIPOS>MOLECULE
*****
 29 31 0 0 0
SMALL
GASTEIGER

@<TRIPOS>ATOM
      1 C         143.5967  141.9693  162.5241 C.ar    1  UNL1        0.1030
      2 C         145.0500  142.0781  162.8792 C.ar    1  UNL1        0.0414
      3 C         145.6314  141.1906  163.9395 C.ar    1  UNL1        0.1034
      4 N         144.7596  140.1943  164.6446 N.ar    1  UNL1       -0.2120
      5 C         143.3063  140.0855  164.2895 C.ar    1  UNL1        0.2207
      6 N         142.7249  140.9730  163.2293 N.ar    1  UNL1       -0.2120
      7 C         140.5829  145.5343  160.0565 C.3     1  UNL1        0.0718
      8 C         141.6299  144.4954  160.3296 C.ar    1  UNL1        0.1208
      9 N         142.6109  143.9496  159.3347 N.ar    1  UNL1       -0.2293
     10 C         143.4670  142.9369  160.0357 C.ar    1  UNL1        0.1188
     11 C         143.0152  142.8568  161.4638 C.ar    1  UNL1        0.0981
     12 N         141.8798  143.8201  161.6454 N.ar    1  UNL1       -0.3155
     13 C         141.1265  144.0650  162.9192 C.3     1  UNL1        0.0868
     14 C         139.8025  143.3982  163.1477 C.3     1  UNL1        0.0245
     15 C         141.6974  144.9768  163.9646 C.3     1  UNL1        0.0245
     16 N         142.4345  139.0891  164.9947 N.pl3   1  UNL1       -0.2825
     17 H         142.2451  138.2181  164.5768 H       1  UNL1        0.1551
     18 C         141.8513  139.4199  166.3365 C.ar    1  UNL1        0.0527
     19 C         140.3865  139.7166  166.4651 C.ar    1  UNL1        0.0150
     20 C         139.8034  140.0474  167.8069 C.ar    1  UNL1        0.0080
     21 C         140.6849  140.0816  169.0201 C.ar    1  UNL1        0.0806
     22 C         142.1496  139.7850  168.8914 C.ar    1  UNL1        0.1457
     23 F         143.0311  139.8192  170.1046 F       1  UNL1       -0.2040
     24 C         142.7329  139.4541  167.5496 C.ar    1  UNL1        0.0444
     25 C         140.1016  140.4124  170.3619 C.2     1  UNL1        0.2449
     26 N         140.3208  141.7701  170.9609 N.am    1  UNL1       -0.3253
     27 O         139.2992  139.3856  171.1047 O.2     1  UNL1       -0.2703
     28 H         140.8475  142.4440  170.4733 H       1  UNL1        0.1453
     29 H         139.9380  141.9872  171.8415 H       1  UNL1        0.1453
@<TRIPOS>BOND
     1     7     8    1
     2     8     9   ar
     3     9    10   ar
     4    10    11   ar
     5    11     1    1
     6     1     2   ar
     7     2     3   ar
     8     3     4   ar
     9     4     5   ar
    10     5    16    1
    11    16    18    1
    12    18    19   ar
    13    19    20   ar
    14    20    21   ar
    15    21    25    1
    16    25    26   am
    17    25    27    2
    18    21    22   ar
    19    22    23    1
    20    22    24   ar
    21     5     6   ar
    22    11    12   ar
    23    12    13    1
    24    13    14    1
    25    13    15    1
    26    12     8   ar
    27     6     1   ar
    28    24    18   ar
    29    16    17    1
    30    26    28    1
    31    26    29    1
@<TRIPOS>MOLECULE
*****
 29 31 0 0 0
SMALL
GASTEIGER

@<TRIPOS>ATOM
      1 C         139.2976  139.2227  165.4395 C.ar    1  UNL1        0.1030
      2 C         139.4858  137.8568  164.8490 C.ar    1  UNL1        0.0414
      3 C         138.9603  137.5539  163.4771 C.ar    1  UNL1        0.1034
      4 N         138.2467  138.6170  162.6957 N.ar    1  UNL1       -0.2120
      5 C         138.0585  139.9830  163.2863 C.ar    1  UNL1        0.2207
      6 N         138.5839  140.2858  164.6582 N.ar    1  UNL1       -0.2120
      7 C         142.5787  140.2583  169.4449 C.3     1  UNL1        0.0718
      8 C         141.3312  140.0016  168.6525 C.ar    1  UNL1        0.1208
      9 N         139.9320  139.9818  169.1928 N.ar    1  UNL1       -0.2293
     10 C         138.9999  139.6876  168.0550 C.ar    1  UNL1        0.1188
     11 C         139.8231  139.5256  166.8115 C.ar    1  UNL1        0.0981
     12 N         141.2638  139.7197  167.1808 N.ar    1  UNL1       -0.3155
     13 C         142.4322  139.6449  166.2431 C.3     1  UNL1        0.0868
     14 C         143.3146  138.4320  166.2394 C.3     1  UNL1        0.0245
     15 C         142.7182  140.7833  165.3090 C.3     1  UNL1        0.0245
     16 N         137.3448  141.0461  162.5049 N.pl3   1  UNL1       -0.2825
     17 H         136.3608  141.0750  162.4981 H       1  UNL1        0.1551
     18 C         138.1305  142.0650  161.7339 C.ar    1  UNL1        0.0527
     19 C         138.5116  141.7965  160.3082 C.ar    1  UNL1        0.0150
     20 C         139.2972  142.8155  159.5372 C.ar    1  UNL1        0.0080
     21 C         139.7018  144.1030  160.1919 C.ar    1  UNL1        0.0806
     22 C         139.3207  144.3715  161.6176 C.ar    1  UNL1        0.1457
     23 F         139.7253  145.6590  162.2723 F       1  UNL1       -0.2040
     24 C         138.5350  143.3525  162.3886 C.ar    1  UNL1        0.0444
     25 C         140.4874  145.1220  159.4208 C.2     1  UNL1        0.2449
     26 N         141.8825  145.4723  159.8462 N.am    1  UNL1       -0.3253
     27 O         139.8780  145.7906  158.2244 O.2     1  UNL1       -0.2703
     28 H         142.2825  145.0334  160.6315 H       1  UNL1        0.1453
     29 H         142.3982  146.1411  159.3402 H       1  UNL1        0.1453
@<TRIPOS>BOND
     1     7     8    1
     2     8     9   ar
     3     9    10   ar
     4    10    11   ar
     5    11     1    1
     6     1     2   ar
     7     2     3   ar
     8     3     4   ar
     9     4     5   ar
    10     5    16    1
    11    16    18    1
    12    18    19   ar
    13    19    20   ar
    14    20    21   ar
    15    21    25    1
    16    25    26   am
    17    25    27    2
    18    21    22   ar
    19    22    23    1
    20    22    24   ar
    21     5     6   ar
    22    11    12   ar
    23    12    13    1
    24    13    14    1
    25    13    15    1
    26    12     8   ar
    27     6     1   ar
    28    24    18   ar
    29    16    17    1
    30    26    28    1
    31    26    29    1
