@<TRIPOS>MOLECULE
*****
 39 43 0 0 0
SMALL
GASTEIGER

@<TRIPOS>ATOM
      1 N         142.1656  140.9029  165.7772 N.ar    1  UNL1       -0.2986
      2 C         140.9800  140.6776  166.6680 C.ar    1  UNL1        0.1245
      3 C         140.0599  139.7132  165.9801 C.ar    1  UNL1        0.1157
      4 C         140.6768  139.3424  164.6641 C.ar    1  UNL1        0.0967
      5 C         141.9782  140.0777  164.5387 C.ar    1  UNL1        0.1354
      6 C         142.8245  139.9007  163.3129 C.ar    1  UNL1        0.2819
      7 O         144.1259  140.6360  163.1875 O.2     1  UNL1       -0.2652
      8 N         142.3694  138.9886  162.2126 N.ar    1  UNL1       -0.2400
      9 C         141.0680  138.2533  162.3379 C.ar    1  UNL1        0.3343
     10 O         140.6129  137.3412  161.2376 O.2     1  UNL1       -0.2462
     11 N         140.2217  138.4302  163.5637 N.ar    1  UNL1       -0.2770
     12 C         138.9203  137.6950  163.6891 C.3     1  UNL1        0.1351
     13 N         140.7541  141.3064  168.0111 N.pl3   1  UNL1       -0.2926
     14 C         140.5238  142.7847  168.1179 C.3     1  UNL1        0.0922
     15 C         140.2979  143.4134  169.4609 C.3     1  UNL1        0.0229
     16 C         140.3024  142.5638  170.6970 C.3     1  UNL1        0.0190
     17 C         140.5327  141.0855  170.5902 C.3     1  UNL1        0.0709
     18 N         140.5372  140.2359  171.8264 N.3     1  UNL1       -0.3208
     19 C         140.7586  140.4568  169.2472 C.3     1  UNL1        0.1075
     20 H         140.3693  140.8232  172.6433 H       1  UNL1        0.1189
     21 H         141.4425  139.7752  171.9191 H       1  UNL1        0.1189
     22 C         138.7524  139.2082  166.5143 C.1     1  UNL1        0.1047
     23 N         137.4448  138.7032  167.0486 N.1     1  UNL1       -0.1907
     24 C         143.3335  141.7964  166.0729 C.3     1  UNL1        0.1842
     25 C         143.9677  145.5426  163.6616 C.3     1  UNL1        0.0900
     26 C         143.7564  144.2939  164.4654 C.1     1  UNL1       -0.0881
     27 C         143.5449  143.0451  165.2692 C.1     1  UNL1       -0.0656
     28 C         143.2157  138.8117  160.9868 C.3     1  UNL1        0.1791
     29 C         143.2246  139.8688  159.9226 C.ar    1  UNL1        0.1617
     30 N         144.1660  139.7550  158.7603 N.ar    1  UNL1       -0.2330
     31 C         144.1750  140.8121  157.6962 C.ar    1  UNL1        0.0622
     32 C         145.1164  140.6983  156.5339 C.3     1  UNL1        0.0522
     33 C         143.2425  141.9830  157.7942 C.ar    1  UNL1        0.0313
     34 C         143.2515  143.0400  156.7300 C.ar    1  UNL1        0.0027
     35 C         142.3190  144.2108  156.8281 C.ar    1  UNL1        0.0001
     36 C         141.3776  144.3246  157.9903 C.ar    1  UNL1        0.0015
     37 C         141.3687  143.2676  159.0545 C.ar    1  UNL1        0.0192
     38 C         142.3011  142.0968  158.9564 C.ar    1  UNL1        0.0838
     39 N         142.2922  141.0396  160.0207 N.ar    1  UNL1       -0.2287
@<TRIPOS>BOND
     1    25    26    1
     2    26    27    3
     3    27    24    1
     4    24     1    1
     5     1     2   ar
     6     2    13    1
     7    13    14    1
     8    14    15    1
     9    15    16    1
    10    16    17    1
    11    17    18    1
    12    17    19    1
    13     2     3   ar
    14     3    22    1
    15    22    23    3
    16     3     4   ar
    17     4     5   ar
    18     5     6   ar
    19     6     7    2
    20     6     8   ar
    21     8    28    1
    22    28    29    1
    23    29    30   ar
    24    30    31   ar
    25    31    32    1
    26    31    33   ar
    27    33    34   ar
    28    34    35   ar
    29    35    36   ar
    30    36    37   ar
    31    37    38   ar
    32    38    39   ar
    33     8     9   ar
    34     9    10    2
    35     9    11   ar
    36    11    12    1
    37     5     1   ar
    38    39    29   ar
    39    19    13    1
    40    11     4   ar
    41    38    33   ar
    42    18    20    1
    43    18    21    1
@<TRIPOS>MOLECULE
*****
 39 43 0 0 0
SMALL
GASTEIGER

@<TRIPOS>ATOM
      1 N         142.0584  141.2903  165.1611 N.ar    1  UNL1       -0.2986
      2 C         140.9370  141.9730  165.8866 C.ar    1  UNL1        0.1245
      3 C         140.4799  143.1305  165.0491 C.ar    1  UNL1        0.1157
      4 C         141.3187  143.1630  163.8061 C.ar    1  UNL1        0.0967
      5 C         142.2943  142.0258  163.8753 C.ar    1  UNL1        0.1354
      6 C         143.2715  141.8069  162.7585 C.ar    1  UNL1        0.2819
      7 O         144.2471  140.6696  162.8277 O.2     1  UNL1       -0.2652
      8 N         143.2730  142.7252  161.5725 N.ar    1  UNL1       -0.2400
      9 C         142.2974  143.8625  161.5033 C.ar    1  UNL1        0.3343
     10 O         142.2990  144.7809  160.3173 O.2     1  UNL1       -0.2462
     11 N         141.3203  144.0814  162.6201 N.ar    1  UNL1       -0.2770
     12 C         140.3447  145.2187  162.5509 C.3     1  UNL1        0.1351
     13 N         140.3719  141.5692  167.2162 N.pl3   1  UNL1       -0.2926
     14 C         139.5116  140.3453  167.3250 C.3     1  UNL1        0.0922
     15 C         138.9466  139.9415  168.6545 C.3     1  UNL1        0.0229
     16 C         139.2419  140.7617  169.8752 C.3     1  UNL1        0.0190
     17 C         140.1022  141.9856  169.7664 C.3     1  UNL1        0.0709
     18 N         140.3975  142.8057  170.9872 N.3     1  UNL1       -0.3208
     19 C         140.6672  142.3893  168.4369 C.3     1  UNL1        0.1075
     20 H         139.9368  142.3891  171.7963 H       1  UNL1        0.1189
     21 H         140.0515  143.7555  170.8505 H       1  UNL1        0.1189
     22 C         139.3774  144.0873  165.3942 C.1     1  UNL1        0.1047
     23 N         138.2749  145.0442  165.7393 N.1     1  UNL1       -0.1907
     24 C         142.8117  140.0839  165.6378 C.3     1  UNL1        0.1842
     25 C         142.6565  138.9041  169.9776 C.3     1  UNL1        0.0900
     26 C         142.7083  139.2974  168.5310 C.1     1  UNL1       -0.0881
     27 C         142.7599  139.6906  167.0843 C.1     1  UNL1       -0.0656
     28 C         144.2502  142.5063  160.4557 C.3     1  UNL1        0.1791
     29 C         143.9429  141.5134  159.3741 C.ar    1  UNL1        0.1617
     30 N         142.7708  140.5882  159.5163 N.ar    1  UNL1       -0.2330
     31 C         142.4634  139.5953  158.4348 C.ar    1  UNL1        0.0622
     32 C         141.2913  138.6702  158.5770 C.3     1  UNL1        0.0522
     33 C         143.3282  139.5276  157.2110 C.ar    1  UNL1        0.0313
     34 C         143.0208  138.5348  156.1295 C.ar    1  UNL1        0.0027
     35 C         143.8856  138.4671  154.9057 C.ar    1  UNL1        0.0001
     36 C         145.0577  139.3923  154.7635 C.ar    1  UNL1        0.0015
     37 C         145.3650  140.3851  155.8450 C.ar    1  UNL1        0.0192
     38 C         144.5003  140.4528  157.0688 C.ar    1  UNL1        0.0838
     39 N         144.8076  141.4457  158.1504 N.ar    1  UNL1       -0.2287
@<TRIPOS>BOND
     1    25    26    1
     2    26    27    3
     3    27    24    1
     4    24     1    1
     5     1     2   ar
     6     2    13    1
     7    13    14    1
     8    14    15    1
     9    15    16    1
    10    16    17    1
    11    17    18    1
    12    17    19    1
    13     2     3   ar
    14     3    22    1
    15    22    23    3
    16     3     4   ar
    17     4     5   ar
    18     5     6   ar
    19     6     7    2
    20     6     8   ar
    21     8    28    1
    22    28    29    1
    23    29    30   ar
    24    30    31   ar
    25    31    32    1
    26    31    33   ar
    27    33    34   ar
    28    34    35   ar
    29    35    36   ar
    30    36    37   ar
    31    37    38   ar
    32    38    39   ar
    33     8     9   ar
    34     9    10    2
    35     9    11   ar
    36    11    12    1
    37     5     1   ar
    38    39    29   ar
    39    19    13    1
    40    11     4   ar
    41    38    33   ar
    42    18    20    1
    43    18    21    1
@<TRIPOS>MOLECULE
*****
 39 43 0 0 0
SMALL
GASTEIGER

@<TRIPOS>ATOM
      1 N         140.3937  140.3813  164.7938 N.ar    1  UNL1       -0.2986
      2 C         141.7967  140.3547  165.3238 C.ar    1  UNL1        0.1245
      3 C         142.7098  139.9659  164.1991 C.ar    1  UNL1        0.1157
      4 C         141.8712  139.7522  162.9740 C.ar    1  UNL1        0.0967
      5 C         140.4398  140.0089  163.3415 C.ar    1  UNL1        0.1354
      6 C         139.3632  139.8704  162.3062 C.ar    1  UNL1        0.2819
      7 O         137.9318  140.1270  162.6737 O.2     1  UNL1       -0.2652
      8 N         139.7181  139.4752  160.9034 N.ar    1  UNL1       -0.2400
      9 C         141.1495  139.2185  160.5358 C.ar    1  UNL1        0.3343
     10 O         141.5044  138.8233  159.1331 O.2     1  UNL1       -0.2462
     11 N         142.2261  139.3570  161.5711 N.ar    1  UNL1       -0.2770
     12 C         143.6575  139.1003  161.2036 C.3     1  UNL1        0.1351
     13 N         142.2134  140.6629  166.7315 N.pl3   1  UNL1       -0.2926
     14 C         142.7635  142.0162  167.0716 C.3     1  UNL1        0.0922
     15 C         143.1802  142.3243  168.4792 C.3     1  UNL1        0.0229
     16 C         143.0467  141.2790  169.5467 C.3     1  UNL1        0.0190
     17 C         142.4966  139.9257  169.2066 C.3     1  UNL1        0.0709
     18 N         142.3632  138.8804  170.2741 N.3     1  UNL1       -0.3208
     19 C         142.0800  139.6176  167.7990 C.3     1  UNL1        0.1075
     20 H         142.6908  139.2584  171.1630 H       1  UNL1        0.1189
     21 H         142.9235  138.0656  170.0241 H       1  UNL1        0.1189
     22 C         144.2000  139.8170  164.2845 C.1     1  UNL1        0.1047
     23 N         145.6902  139.6681  164.3699 N.1     1  UNL1       -0.1907
     24 C         139.1611  140.7206  165.5783 C.3     1  UNL1        0.1842
     25 C         136.8603  137.4688  167.6717 C.3     1  UNL1        0.0900
     26 C         137.6272  138.5527  166.9739 C.1     1  UNL1       -0.0881
     27 C         138.3942  139.6367  166.2761 C.1     1  UNL1       -0.0656
     28 C         138.6415  139.3367  159.8681 C.3     1  UNL1        0.1791
     29 C         138.4056  140.4396  158.8792 C.ar    1  UNL1        0.1617
     30 N         139.2088  141.7039  158.9600 N.ar    1  UNL1       -0.2330
     31 C         138.9730  142.8068  157.9712 C.ar    1  UNL1        0.0622
     32 C         139.7762  144.0710  158.0520 C.3     1  UNL1        0.0522
     33 C         137.9339  142.6455  156.9014 C.ar    1  UNL1        0.0313
     34 C         137.6980  143.7484  155.9125 C.ar    1  UNL1        0.0027
     35 C         136.6590  143.5871  154.8428 C.ar    1  UNL1        0.0001
     36 C         135.8558  142.3228  154.7620 C.ar    1  UNL1        0.0015
     37 C         136.0916  141.2199  155.7508 C.ar    1  UNL1        0.0192
     38 C         137.1307  141.3812  156.8205 C.ar    1  UNL1        0.0838
     39 N         137.3666  140.2783  157.8095 N.ar    1  UNL1       -0.2287
@<TRIPOS>BOND
     1    25    26    1
     2    26    27    3
     3    27    24    1
     4    24     1    1
     5     1     2   ar
     6     2    13    1
     7    13    14    1
     8    14    15    1
     9    15    16    1
    10    16    17    1
    11    17    18    1
    12    17    19    1
    13     2     3   ar
    14     3    22    1
    15    22    23    3
    16     3     4   ar
    17     4     5   ar
    18     5     6   ar
    19     6     7    2
    20     6     8   ar
    21     8    28    1
    22    28    29    1
    23    29    30   ar
    24    30    31   ar
    25    31    32    1
    26    31    33   ar
    27    33    34   ar
    28    34    35   ar
    29    35    36   ar
    30    36    37   ar
    31    37    38   ar
    32    38    39   ar
    33     8     9   ar
    34     9    10    2
    35     9    11   ar
    36    11    12    1
    37     5     1   ar
    38    39    29   ar
    39    19    13    1
    40    11     4   ar
    41    38    33   ar
    42    18    20    1
    43    18    21    1
@<TRIPOS>MOLECULE
*****
 39 43 0 0 0
SMALL
GASTEIGER

@<TRIPOS>ATOM
      1 N         139.3673  142.0300  161.3525 N.ar    1  UNL1       -0.2986
      2 C         140.2401  141.9968  160.1330 C.ar    1  UNL1        0.1245
      3 C         141.0830  140.7579  160.1998 C.ar    1  UNL1        0.1157
      4 C         140.7312  140.0254  161.4606 C.ar    1  UNL1        0.0967
      5 C         139.6709  140.8115  162.1730 C.ar    1  UNL1        0.1354
      6 C         139.1187  140.3163  163.4768 C.ar    1  UNL1        0.2819
      7 O         138.0584  141.1024  164.1892 O.2     1  UNL1       -0.2652
      8 N         139.6269  139.0349  164.0682 N.ar    1  UNL1       -0.2400
      9 C         140.6873  138.2487  163.3558 C.ar    1  UNL1        0.3343
     10 O         141.1955  136.9674  163.9472 O.2     1  UNL1       -0.2462
     11 N         141.2395  138.7439  162.0520 N.ar    1  UNL1       -0.2770
     12 C         142.2998  137.9578  161.3396 C.3     1  UNL1        0.1351
     13 N         140.2654  143.0226  159.0388 N.pl3   1  UNL1       -0.2926
     14 C         139.2187  142.9994  157.9647 C.3     1  UNL1        0.0922
     15 C         139.2441  144.0251  156.8705 C.3     1  UNL1        0.0229
     16 C         140.3163  145.0740  156.8505 C.3     1  UNL1        0.0190
     17 C         141.3630  145.0971  157.9246 C.3     1  UNL1        0.0709
     18 N         142.4351  146.1460  157.9045 N.3     1  UNL1       -0.3208
     19 C         141.3376  144.0714  159.0187 C.3     1  UNL1        0.1075
     20 H         142.3001  146.7548  157.0974 H       1  UNL1        0.1189
     21 H         143.3489  145.6970  157.8426 H       1  UNL1        0.1189
     22 C         142.0993  140.3271  159.1842 C.1     1  UNL1        0.1047
     23 N         143.1157  139.8964  158.1685 N.1     1  UNL1       -0.1907
     24 C         138.3667  143.0946  161.6920 C.3     1  UNL1        0.1842
     25 C         138.5067  145.1150  165.7105 C.3     1  UNL1        0.0900
     26 C         138.4600  144.4416  164.3710 C.1     1  UNL1       -0.0881
     27 C         138.4133  143.7680  163.0315 C.1     1  UNL1       -0.0656
     28 C         139.0748  138.5397  165.3720 C.3     1  UNL1        0.1791
     29 C         139.5115  139.1724  166.6601 C.ar    1  UNL1        0.1617
     30 N         138.5534  139.2707  167.8100 N.ar    1  UNL1       -0.2330
     31 C         138.9900  139.9033  169.0981 C.ar    1  UNL1        0.0622
     32 C         138.0319  140.0017  170.2480 C.3     1  UNL1        0.0522
     33 C         140.3849  140.4376  169.2363 C.ar    1  UNL1        0.0313
     34 C         140.8216  141.0702  170.5243 C.ar    1  UNL1        0.0027
     35 C         142.2164  141.6044  170.6624 C.ar    1  UNL1        0.0001
     36 C         143.1745  141.5060  169.5125 C.ar    1  UNL1        0.0015
     37 C         142.7378  140.8734  168.2245 C.ar    1  UNL1        0.0192
     38 C         141.3430  140.3392  168.0864 C.ar    1  UNL1        0.0838
     39 N         140.9063  139.7066  166.7983 N.ar    1  UNL1       -0.2287
@<TRIPOS>BOND
     1    25    26    1
     2    26    27    3
     3    27    24    1
     4    24     1    1
     5     1     2   ar
     6     2    13    1
     7    13    14    1
     8    14    15    1
     9    15    16    1
    10    16    17    1
    11    17    18    1
    12    17    19    1
    13     2     3   ar
    14     3    22    1
    15    22    23    3
    16     3     4   ar
    17     4     5   ar
    18     5     6   ar
    19     6     7    2
    20     6     8   ar
    21     8    28    1
    22    28    29    1
    23    29    30   ar
    24    30    31   ar
    25    31    32    1
    26    31    33   ar
    27    33    34   ar
    28    34    35   ar
    29    35    36   ar
    30    36    37   ar
    31    37    38   ar
    32    38    39   ar
    33     8     9   ar
    34     9    10    2
    35     9    11   ar
    36    11    12    1
    37     5     1   ar
    38    39    29   ar
    39    19    13    1
    40    11     4   ar
    41    38    33   ar
    42    18    20    1
    43    18    21    1
@<TRIPOS>MOLECULE
*****
 39 43 0 0 0
SMALL
GASTEIGER

@<TRIPOS>ATOM
      1 N         140.1177  143.1264  161.0919 N.ar    1  UNL1       -0.2986
      2 C         140.3860  142.8616  159.6401 C.ar    1  UNL1        0.1245
      3 C         140.1214  141.4087  159.3773 C.ar    1  UNL1        0.1157
      4 C         139.6895  140.7756  160.6667 C.ar    1  UNL1        0.0967
      5 C         139.6873  141.8372  161.7264 C.ar    1  UNL1        0.1354
      6 C         139.2935  141.4927  163.1322 C.ar    1  UNL1        0.2819
      7 O         139.2912  142.5543  164.1919 O.2     1  UNL1       -0.2652
      8 N         138.9021  140.0867  163.4783 N.ar    1  UNL1       -0.2400
      9 C         138.9044  139.0251  162.4186 C.ar    1  UNL1        0.3343
     10 O         138.5129  137.6191  162.7647 O.2     1  UNL1       -0.2462
     11 N         139.2981  139.3695  161.0128 N.ar    1  UNL1       -0.2770
     12 C         139.3004  138.3080  159.9531 C.3     1  UNL1        0.1351
     13 N         140.8393  143.8723  158.6285 N.pl3   1  UNL1       -0.2926
     14 C         142.1723  143.7170  157.9585 C.3     1  UNL1        0.0922
     15 C         142.6255  144.7276  156.9470 C.3     1  UNL1        0.0229
     16 C         141.7458  145.8936  156.6056 C.3     1  UNL1        0.0190
     17 C         140.4128  146.0489  157.2756 C.3     1  UNL1        0.0709
     18 N         139.5331  147.2149  156.9342 N.3     1  UNL1       -0.3208
     19 C         139.9596  145.0383  158.2871 C.3     1  UNL1        0.1075
     20 H         139.9949  147.7958  156.2344 H       1  UNL1        0.1189
     21 H         139.3597  147.7674  157.7739 H       1  UNL1        0.1189
     22 C         140.2636  140.7114  158.0569 C.1     1  UNL1        0.1047
     23 N         140.4059  140.0140  156.7364 N.1     1  UNL1       -0.1907
     24 C         140.2556  144.4484  161.7872 C.3     1  UNL1        0.1842
     25 C         143.8667  145.2822  164.3396 C.3     1  UNL1        0.0900
     26 C         142.6630  145.0043  163.4888 C.1     1  UNL1       -0.0881
     27 C         141.4593  144.7263  162.6380 C.1     1  UNL1       -0.0656
     28 C         138.5084  139.7423  164.8842 C.3     1  UNL1        0.1791
     29 C         139.5401  139.7408  165.9730 C.ar    1  UNL1        0.1617
     30 N         140.9352  139.2717  165.6836 N.ar    1  UNL1       -0.2330
     31 C         141.9670  139.2702  166.7724 C.ar    1  UNL1        0.0622
     32 C         143.3621  138.8012  166.4830 C.3     1  UNL1        0.0522
     33 C         141.6037  139.7378  168.1506 C.ar    1  UNL1        0.0313
     34 C         142.6354  139.7363  169.2394 C.ar    1  UNL1        0.0027
     35 C         142.2721  140.2039  170.6175 C.ar    1  UNL1        0.0001
     36 C         140.8770  140.6729  170.9069 C.ar    1  UNL1        0.0015
     37 C         139.8453  140.6744  169.8181 C.ar    1  UNL1        0.0192
     38 C         140.2086  140.2069  168.4400 C.ar    1  UNL1        0.0838
     39 N         139.1768  140.2083  167.3512 N.ar    1  UNL1       -0.2287
@<TRIPOS>BOND
     1    25    26    1
     2    26    27    3
     3    27    24    1
     4    24     1    1
     5     1     2   ar
     6     2    13    1
     7    13    14    1
     8    14    15    1
     9    15    16    1
    10    16    17    1
    11    17    18    1
    12    17    19    1
    13     2     3   ar
    14     3    22    1
    15    22    23    3
    16     3     4   ar
    17     4     5   ar
    18     5     6   ar
    19     6     7    2
    20     6     8   ar
    21     8    28    1
    22    28    29    1
    23    29    30   ar
    24    30    31   ar
    25    31    32    1
    26    31    33   ar
    27    33    34   ar
    28    34    35   ar
    29    35    36   ar
    30    36    37   ar
    31    37    38   ar
    32    38    39   ar
    33     8     9   ar
    34     9    10    2
    35     9    11   ar
    36    11    12    1
    37     5     1   ar
    38    39    29   ar
    39    19    13    1
    40    11     4   ar
    41    38    33   ar
    42    18    20    1
    43    18    21    1
@<TRIPOS>MOLECULE
*****
 39 43 0 0 0
SMALL
GASTEIGER

@<TRIPOS>ATOM
      1 N         140.7913  139.3256  159.7803 N.ar    1  UNL1       -0.2986
      2 C         139.5341  140.1330  159.6494 C.ar    1  UNL1        0.1245
      3 C         139.0460  140.0051  158.2367 C.ar    1  UNL1        0.1157
      4 C         140.0017  139.1185  157.4947 C.ar    1  UNL1        0.0967
      5 C         141.0803  138.6985  158.4487 C.ar    1  UNL1        0.1354
      6 C         142.1864  137.7994  157.9815 C.ar    1  UNL1        0.2819
      7 O         143.2650  137.3794  158.9354 O.2     1  UNL1       -0.2652
      8 N         142.2137  137.3203  156.5604 N.ar    1  UNL1       -0.2400
      9 C         141.1350  137.7402  155.6064 C.ar    1  UNL1        0.3343
     10 O         141.1624  137.2611  154.1852 O.2     1  UNL1       -0.2462
     11 N         140.0290  138.6394  156.0735 N.ar    1  UNL1       -0.2770
     12 C         138.9503  139.0593  155.1196 C.3     1  UNL1        0.1351
     13 N         138.8796  140.9288  160.7396 N.pl3   1  UNL1       -0.2926
     14 C         137.9798  140.2483  161.7281 C.3     1  UNL1        0.0922
     15 C         137.3255  141.0441  162.8183 C.3     1  UNL1        0.0229
     16 C         137.5710  142.5204  162.9199 C.3     1  UNL1        0.0190
     17 C         138.4708  143.2009  161.9314 C.3     1  UNL1        0.0709
     18 N         138.7163  144.6772  162.0331 N.3     1  UNL1       -0.3208
     19 C         139.1251  142.4051  160.8413 C.3     1  UNL1        0.1075
     20 H         138.1966  145.0545  162.8256 H       1  UNL1        0.1189
     21 H         138.4063  145.1333  161.1751 H       1  UNL1        0.1189
     22 C         137.8179  140.6504  157.6664 C.1     1  UNL1        0.1047
     23 N         136.5897  141.2957  157.0959 N.1     1  UNL1       -0.1907
     24 C         141.6150  139.1720  161.0245 C.3     1  UNL1        0.1842
     25 C         139.7440  137.5296  164.7731 C.3     1  UNL1        0.0900
     26 C         140.3676  138.0771  163.5236 C.1     1  UNL1       -0.0881
     27 C         140.9914  138.6246  162.2740 C.1     1  UNL1       -0.0656
     28 C         143.3198  136.4211  156.0932 C.3     1  UNL1        0.1791
     29 C         143.1768  134.9326  156.2114 C.ar    1  UNL1        0.1617
     30 N         142.0636  134.2269  155.4953 N.ar    1  UNL1       -0.2330
     31 C         141.9205  132.7385  155.6134 C.ar    1  UNL1        0.0622
     32 C         140.8073  132.0328  154.8973 C.3     1  UNL1        0.0522
     33 C         142.8907  131.9556  156.4477 C.ar    1  UNL1        0.0313
     34 C         142.7477  130.4672  156.5658 C.ar    1  UNL1        0.0027
     35 C         143.7178  129.6844  157.4001 C.ar    1  UNL1        0.0001
     36 C         144.8310  130.3900  158.1162 C.ar    1  UNL1        0.0015
     37 C         144.9741  131.8785  157.9980 C.ar    1  UNL1        0.0192
     38 C         144.0039  132.6613  157.1638 C.ar    1  UNL1        0.0838
     39 N         144.1469  134.1498  157.0456 N.ar    1  UNL1       -0.2287
@<TRIPOS>BOND
     1    25    26    1
     2    26    27    3
     3    27    24    1
     4    24     1    1
     5     1     2   ar
     6     2    13    1
     7    13    14    1
     8    14    15    1
     9    15    16    1
    10    16    17    1
    11    17    18    1
    12    17    19    1
    13     2     3   ar
    14     3    22    1
    15    22    23    3
    16     3     4   ar
    17     4     5   ar
    18     5     6   ar
    19     6     7    2
    20     6     8   ar
    21     8    28    1
    22    28    29    1
    23    29    30   ar
    24    30    31   ar
    25    31    32    1
    26    31    33   ar
    27    33    34   ar
    28    34    35   ar
    29    35    36   ar
    30    36    37   ar
    31    37    38   ar
    32    38    39   ar
    33     8     9   ar
    34     9    10    2
    35     9    11   ar
    36    11    12    1
    37     5     1   ar
    38    39    29   ar
    39    19    13    1
    40    11     4   ar
    41    38    33   ar
    42    18    20    1
    43    18    21    1
@<TRIPOS>MOLECULE
*****
 39 43 0 0 0
SMALL
GASTEIGER

@<TRIPOS>ATOM
      1 N         142.7589  141.0283  159.3705 N.ar    1  UNL1       -0.2986
      2 C         143.2599  142.2314  158.6278 C.ar    1  UNL1        0.1245
      3 C         142.2992  143.3580  158.8686 C.ar    1  UNL1        0.1157
      4 C         141.2046  142.8512  159.7601 C.ar    1  UNL1        0.0967
      5 C         141.4886  141.4114  160.0703 C.ar    1  UNL1        0.1354
      6 C         140.5539  140.6351  160.9498 C.ar    1  UNL1        0.2819
      7 O         140.8379  139.1953  161.2600 O.2     1  UNL1       -0.2652
      8 N         139.3351  141.2986  161.5193 N.ar    1  UNL1       -0.2400
      9 C         139.0510  142.7385  161.2091 C.ar    1  UNL1        0.3343
     10 O         137.8322  143.4021  161.7785 O.2     1  UNL1       -0.2462
     11 N         139.9858  143.5148  160.3295 N.ar    1  UNL1       -0.2770
     12 C         139.7017  144.9546  160.0193 C.3     1  UNL1        0.1351
     13 N         144.5032  142.2965  157.7912 N.pl3   1  UNL1       -0.2926
     14 C         144.4476  141.9375  156.3359 C.3     1  UNL1        0.0922
     15 C         145.6910  142.0027  155.4993 C.3     1  UNL1        0.0229
     16 C         146.9899  142.4267  156.1181 C.3     1  UNL1        0.0190
     17 C         147.0455  142.7857  157.5734 C.3     1  UNL1        0.0709
     18 N         148.3445  143.2098  158.1922 N.3     1  UNL1       -0.3208
     19 C         145.8022  142.7206  158.4100 C.3     1  UNL1        0.1075
     20 H         149.0785  143.1971  157.4841 H       1  UNL1        0.1189
     21 H         148.5879  142.5670  158.9459 H       1  UNL1        0.1189
     22 C         142.4133  144.7475  158.3151 C.1     1  UNL1        0.1047
     23 N         142.5273  146.1370  157.7616 N.1     1  UNL1       -0.1907
     24 C         143.4132  139.6791  159.4070 C.3     1  UNL1        0.1842
     25 C         142.0779  136.4533  156.5676 C.3     1  UNL1        0.0900
     26 C         142.5230  137.5285  157.5141 C.1     1  UNL1       -0.0881
     27 C         142.9681  138.6039  158.4605 C.1     1  UNL1       -0.0656
     28 C         138.4004  140.5224  162.3988 C.3     1  UNL1        0.1791
     29 C         138.6683  140.4187  163.8711 C.ar    1  UNL1        0.1617
     30 N         138.0464  139.3123  164.6705 N.ar    1  UNL1       -0.2330
     31 C         138.3143  139.2086  166.1427 C.ar    1  UNL1        0.0622
     32 C         137.6924  138.1022  166.9421 C.3     1  UNL1        0.0522
     33 C         139.2042  140.2113  166.8156 C.ar    1  UNL1        0.0313
     34 C         139.4721  140.1076  168.2878 C.ar    1  UNL1        0.0027
     35 C         140.3620  141.1104  168.9606 C.ar    1  UNL1        0.0001
     36 C         140.9839  142.2168  168.1612 C.ar    1  UNL1        0.0015
     37 C         140.7160  142.3205  166.6890 C.ar    1  UNL1        0.0192
     38 C         139.8261  141.3178  166.0162 C.ar    1  UNL1        0.0838
     39 N         139.5582  141.4214  164.5439 N.ar    1  UNL1       -0.2287
@<TRIPOS>BOND
     1    25    26    1
     2    26    27    3
     3    27    24    1
     4    24     1    1
     5     1     2   ar
     6     2    13    1
     7    13    14    1
     8    14    15    1
     9    15    16    1
    10    16    17    1
    11    17    18    1
    12    17    19    1
    13     2     3   ar
    14     3    22    1
    15    22    23    3
    16     3     4   ar
    17     4     5   ar
    18     5     6   ar
    19     6     7    2
    20     6     8   ar
    21     8    28    1
    22    28    29    1
    23    29    30   ar
    24    30    31   ar
    25    31    32    1
    26    31    33   ar
    27    33    34   ar
    28    34    35   ar
    29    35    36   ar
    30    36    37   ar
    31    37    38   ar
    32    38    39   ar
    33     8     9   ar
    34     9    10    2
    35     9    11   ar
    36    11    12    1
    37     5     1   ar
    38    39    29   ar
    39    19    13    1
    40    11     4   ar
    41    38    33   ar
    42    18    20    1
    43    18    21    1
@<TRIPOS>MOLECULE
*****
 39 43 0 0 0
SMALL
GASTEIGER

@<TRIPOS>ATOM
      1 N         141.7635  141.0947  165.7730 N.ar    1  UNL1       -0.2986
      2 C         140.7077  140.6809  166.7549 C.ar    1  UNL1        0.1245
      3 C         139.7940  139.7079  166.0704 C.ar    1  UNL1        0.1157
      4 C         140.2852  139.5204  164.6655 C.ar    1  UNL1        0.0967
      5 C         141.5024  140.3775  164.4818 C.ar    1  UNL1        0.1354
      6 C         142.2157  140.3941  163.1623 C.ar    1  UNL1        0.2819
      7 O         143.4329  141.2512  162.9785 O.2     1  UNL1       -0.2652
      8 N         141.7118  139.5537  162.0267 N.ar    1  UNL1       -0.2400
      9 C         140.4946  138.6966  162.2104 C.ar    1  UNL1        0.3343
     10 O         139.9907  137.8561  161.0748 O.2     1  UNL1       -0.2462
     11 N         139.7813  138.6799  163.5299 N.ar    1  UNL1       -0.2770
     12 C         138.5641  137.8229  163.7137 C.3     1  UNL1        0.1351
     13 N         140.5868  141.1565  168.1724 N.pl3   1  UNL1       -0.2926
     14 C         140.7243  140.1823  169.3046 C.3     1  UNL1        0.0922
     15 C         140.6034  140.6580  170.7220 C.3     1  UNL1        0.0229
     16 C         140.3449  142.1078  171.0072 C.3     1  UNL1        0.0190
     17 C         140.2074  143.0819  169.8749 C.3     1  UNL1        0.0709
     18 N         139.9489  144.5317  170.1600 N.3     1  UNL1       -0.3208
     19 C         140.3283  142.6063  168.4575 C.3     1  UNL1        0.1075
     20 H         139.8965  144.6758  171.1684 H       1  UNL1        0.1189
     21 H         139.0669  144.8107  169.7304 H       1  UNL1        0.1189
     22 C         138.5990  139.0397  166.6831 C.1     1  UNL1        0.1047
     23 N         137.4040  138.3715  167.2959 N.1     1  UNL1       -0.1907
     24 C         142.8838  142.0568  166.0362 C.3     1  UNL1        0.1842
     25 C         144.3624  142.6934  170.2385 C.3     1  UNL1        0.0900
     26 C         143.8695  142.4812  168.8378 C.1     1  UNL1       -0.0881
     27 C         143.3767  142.2690  167.4370 C.1     1  UNL1       -0.0656
     28 C         142.4251  139.5704  160.7072 C.3     1  UNL1        0.1791
     29 C         142.4451  140.8223  159.8812 C.ar    1  UNL1        0.1617
     30 N         143.5223  141.0286  158.8579 N.ar    1  UNL1       -0.2330
     31 C         143.5422  142.2804  158.0319 C.ar    1  UNL1        0.0622
     32 C         144.6194  142.4867  157.0086 C.3     1  UNL1        0.0522
     33 C         142.4849  143.3261  158.2290 C.ar    1  UNL1        0.0313
     34 C         142.5049  144.5779  157.4030 C.ar    1  UNL1        0.0027
     35 C         141.4476  145.6235  157.6002 C.ar    1  UNL1        0.0001
     36 C         140.3704  145.4172  158.6234 C.ar    1  UNL1        0.0015
     37 C         140.3504  144.1654  159.4495 C.ar    1  UNL1        0.0192
     38 C         141.4077  143.1198  159.2523 C.ar    1  UNL1        0.0838
     39 N         141.3878  141.8679  160.0784 N.ar    1  UNL1       -0.2287
@<TRIPOS>BOND
     1    25    26    1
     2    26    27    3
     3    27    24    1
     4    24     1    1
     5     1     2   ar
     6     2    13    1
     7    13    14    1
     8    14    15    1
     9    15    16    1
    10    16    17    1
    11    17    18    1
    12    17    19    1
    13     2     3   ar
    14     3    22    1
    15    22    23    3
    16     3     4   ar
    17     4     5   ar
    18     5     6   ar
    19     6     7    2
    20     6     8   ar
    21     8    28    1
    22    28    29    1
    23    29    30   ar
    24    30    31   ar
    25    31    32    1
    26    31    33   ar
    27    33    34   ar
    28    34    35   ar
    29    35    36   ar
    30    36    37   ar
    31    37    38   ar
    32    38    39   ar
    33     8     9   ar
    34     9    10    2
    35     9    11   ar
    36    11    12    1
    37     5     1   ar
    38    39    29   ar
    39    19    13    1
    40    11     4   ar
    41    38    33   ar
    42    18    20    1
    43    18    21    1
@<TRIPOS>MOLECULE
*****
 39 43 0 0 0
SMALL
GASTEIGER

@<TRIPOS>ATOM
      1 N         143.0445  140.9784  158.0585 N.ar    1  UNL1       -0.2986
      2 C         143.6505  141.9671  157.1070 C.ar    1  UNL1        0.1245
      3 C         142.5435  142.8110  156.5481 C.ar    1  UNL1        0.1157
      4 C         141.2534  142.3437  157.1541 C.ar    1  UNL1        0.0967
      5 C         141.5630  141.2112  158.0875 C.ar    1  UNL1        0.1354
      6 C         140.4559  140.5381  158.8434 C.ar    1  UNL1        0.2819
      7 O         140.7655  139.4056  159.7769 O.2     1  UNL1       -0.2652
      8 N         139.0391  140.9977  158.6658 N.ar    1  UNL1       -0.2400
      9 C         138.7294  142.1303  157.7324 C.ar    1  UNL1        0.3343
     10 O         137.3127  142.5898  157.5548 O.2     1  UNL1       -0.2462
     11 N         139.8365  142.8033  156.9765 N.ar    1  UNL1       -0.2770
     12 C         139.5269  143.9359  156.0430 C.3     1  UNL1        0.1351
     13 N         145.1077  142.0904  156.7731 N.pl3   1  UNL1       -0.2926
     14 C         145.6129  141.6292  155.4382 C.3     1  UNL1        0.0922
     15 C         147.0700  141.7525  155.1044 C.3     1  UNL1        0.0229
     16 C         148.0220  142.3370  156.1055 C.3     1  UNL1        0.0190
     17 C         147.5168  142.7981  157.4404 C.3     1  UNL1        0.0709
     18 N         148.4688  143.3825  158.4415 N.3     1  UNL1       -0.3208
     19 C         146.0597  142.6748  157.7742 C.3     1  UNL1        0.1075
     20 H         149.4109  143.3899  158.0507 H       1  UNL1        0.1189
     21 H         148.4575  142.8182  159.2911 H       1  UNL1        0.1189
     22 C         142.6992  143.9262  155.5572 C.1     1  UNL1        0.1047
     23 N         142.8550  145.0414  154.5661 N.1     1  UNL1       -0.1907
     24 C         143.7893  139.9393  158.8431 C.3     1  UNL1        0.1842
     25 C         144.6376  140.5991  163.2129 C.3     1  UNL1        0.0900
     26 C         144.3548  140.3792  161.7563 C.1     1  UNL1       -0.0881
     27 C         144.0721  140.1593  160.2997 C.1     1  UNL1       -0.0656
     28 C         137.9320  140.3247  159.4217 C.3     1  UNL1        0.1791
     29 C         137.9815  140.2537  160.9193 C.ar    1  UNL1        0.1617
     30 N         137.6780  141.4731  161.7383 N.ar    1  UNL1       -0.2330
     31 C         137.7275  141.4022  163.2358 C.ar    1  UNL1        0.0622
     32 C         137.4240  142.6217  164.0548 C.3     1  UNL1        0.0522
     33 C         138.0803  140.1117  163.9143 C.ar    1  UNL1        0.0313
     34 C         138.1298  140.0408  165.4118 C.ar    1  UNL1        0.0027
     35 C         138.4827  138.7504  166.0902 C.ar    1  UNL1        0.0001
     36 C         138.7861  137.5310  165.2712 C.ar    1  UNL1        0.0015
     37 C         138.7367  137.6019  163.7737 C.ar    1  UNL1        0.0192
     38 C         138.3838  138.8923  163.0953 C.ar    1  UNL1        0.0838
     39 N         138.3344  138.9633  161.5977 N.ar    1  UNL1       -0.2287
@<TRIPOS>BOND
     1    25    26    1
     2    26    27    3
     3    27    24    1
     4    24     1    1
     5     1     2   ar
     6     2    13    1
     7    13    14    1
     8    14    15    1
     9    15    16    1
    10    16    17    1
    11    17    18    1
    12    17    19    1
    13     2     3   ar
    14     3    22    1
    15    22    23    3
    16     3     4   ar
    17     4     5   ar
    18     5     6   ar
    19     6     7    2
    20     6     8   ar
    21     8    28    1
    22    28    29    1
    23    29    30   ar
    24    30    31   ar
    25    31    32    1
    26    31    33   ar
    27    33    34   ar
    28    34    35   ar
    29    35    36   ar
    30    36    37   ar
    31    37    38   ar
    32    38    39   ar
    33     8     9   ar
    34     9    10    2
    35     9    11   ar
    36    11    12    1
    37     5     1   ar
    38    39    29   ar
    39    19    13    1
    40    11     4   ar
    41    38    33   ar
    42    18    20    1
    43    18    21    1
