@<TRIPOS>MOLECULE
*****
 36 39 0 0 0
SMALL
GASTEIGER

@<TRIPOS>ATOM
      1 C         139.8733  144.7428  162.7798 C.2     1  UNL1        0.2470
      2 O         138.4066  145.0530  162.7288 O.2     1  UNL1       -0.2701
      3 N         140.7639  145.1397  161.6400 N.am    1  UNL1       -0.3008
      4 H         141.7265  144.9361  161.6734 H       1  UNL1        0.1497
      5 N         142.0016  142.9113  165.4596 N.ar    1  UNL1       -0.3293
      6 C         140.6703  142.9840  166.1469 C.ar    1  UNL1        0.0777
      7 C         139.7110  143.6789  165.2267 C.ar    1  UNL1        0.0243
      8 C         140.4494  144.0357  163.9707 C.ar    1  UNL1        0.0665
      9 C         141.8652  143.5613  164.1147 C.ar    1  UNL1        0.0418
     10 C         142.9533  143.7106  163.0931 C.3     1  UNL1        0.0502
     11 C         140.3538  142.4547  167.5143 C.ar    1  UNL1        0.0970
     12 C         140.3914  143.3718  168.7007 C.ar    1  UNL1        0.0206
     13 C         140.0750  142.8424  170.0680 C.ar    1  UNL1        0.0032
     14 C         139.7210  141.3961  170.2490 C.ar    1  UNL1        0.0207
     15 C         139.6834  140.4790  169.0626 C.ar    1  UNL1        0.0989
     16 N         139.9999  141.0084  167.6952 N.ar    1  UNL1       -0.2424
     17 C         143.2502  142.2965  166.0191 C.3     1  UNL1        0.1058
     18 C         142.4808  139.9635  165.1737 C.3     1  UNL1        0.0021
     19 C         143.4841  140.8209  165.8865 C.3     1  UNL1        0.0245
     20 C         140.1878  145.8468  160.4491 C.3     1  UNL1        0.0911
     21 C         140.4189  145.3036  159.0701 C.3     1  UNL1        0.0386
     22 C         139.8893  143.9504  158.6985 C.3     1  UNL1        0.0739
     23 N         139.8157  142.8644  159.7306 N.3     1  UNL1       -0.2697
     24 C         141.0717  142.1993  160.2102 C.3     1  UNL1        0.0938
     25 C         140.9982  141.1132  161.2424 C.3     1  UNL1        0.1081
     26 N         139.6687  140.6924  161.7948 N.pl3   1  UNL1       -0.3040
     27 C         138.4127  141.3576  161.3151 C.3     1  UNL1        0.1081
     28 C         138.4862  142.4435  160.2831 C.3     1  UNL1        0.0938
     29 C         139.5952  139.6064  162.8269 C.ar    1  UNL1        0.0594
     30 C         140.3740  138.3384  162.6382 C.ar    1  UNL1        0.0154
     31 C         140.3005  137.2524  163.6702 C.ar    1  UNL1        0.0022
     32 C         139.4481  137.4344  164.8910 C.ar    1  UNL1        0.0123
     33 C         138.6693  138.7024  165.0798 C.ar    1  UNL1        0.0694
     34 CL        137.8169  138.8843  166.3005 Cl      1  UNL1       -0.0813
     35 C         138.7428  139.7884  164.0477 C.ar    1  UNL1        0.0815
     36 CL        137.9640  141.0564  164.2363 Cl      1  UNL1       -0.0801
@<TRIPOS>BOND
     1    18    19    1
     2    19    17    1
     3    17     5    1
     4     5     6   ar
     5     6    11    1
     6    11    12   ar
     7    12    13   ar
     8    13    14   ar
     9    14    15   ar
    10    15    16   ar
    11     6     7   ar
    12     7     8   ar
    13     8     1    1
    14     1     2    2
    15     1     3   am
    16     3    20    1
    17    20    21    1
    18    21    22    1
    19    22    23    1
    20    23    24    1
    21    24    25    1
    22    25    26    1
    23    26    29    1
    24    29    30   ar
    25    30    31   ar
    26    31    32   ar
    27    32    33   ar
    28    33    34    1
    29    33    35   ar
    30    35    36    1
    31    26    27    1
    32    27    28    1
    33     8     9   ar
    34     9    10    1
    35     9     5   ar
    36    16    11   ar
    37    28    23    1
    38    35    29   ar
    39     3     4    1
@<TRIPOS>MOLECULE
*****
 36 39 0 0 0
SMALL
GASTEIGER

@<TRIPOS>ATOM
      1 C         138.6030  139.5995  167.7028 C.2     1  UNL1        0.2470
      2 O         137.5767  138.7604  168.4046 O.2     1  UNL1       -0.2701
      3 N         139.5666  140.4279  168.4996 N.am    1  UNL1       -0.3008
      4 H         140.2403  140.9787  168.0390 H       1  UNL1        0.1497
      5 N         138.6468  138.8854  163.8879 N.ar    1  UNL1       -0.3293
      6 C         138.8776  140.3674  163.9080 C.ar    1  UNL1        0.0777
      7 C         138.8893  140.8153  165.3395 C.ar    1  UNL1        0.0243
      8 C         138.6657  139.6101  166.2041 C.ar    1  UNL1        0.0665
      9 C         138.5159  138.4173  165.3069 C.ar    1  UNL1        0.0418
     10 C         138.2770  137.0045  165.7509 C.3     1  UNL1        0.0502
     11 C         139.0640  141.2471  162.7074 C.ar    1  UNL1        0.0970
     12 C         140.4030  141.3259  162.0360 C.ar    1  UNL1        0.0206
     13 C         140.5894  142.2056  160.8354 C.ar    1  UNL1        0.0032
     14 C         139.4367  143.0064  160.3062 C.ar    1  UNL1        0.0207
     15 C         138.0977  142.9275  160.9776 C.ar    1  UNL1        0.0989
     16 N         137.9113  142.0479  162.1782 N.ar    1  UNL1       -0.2424
     17 C         138.5619  138.0228  162.6636 C.3     1  UNL1        0.1058
     18 C         139.5976  138.2855  160.2954 C.3     1  UNL1        0.0021
     19 C         139.7395  137.9118  161.7412 C.3     1  UNL1        0.0245
     20 C         139.5039  140.4173  169.9983 C.3     1  UNL1        0.0911
     21 C         140.7688  140.3467  170.8014 C.3     1  UNL1        0.0386
     22 C         142.0329  139.8468  170.1673 C.3     1  UNL1        0.0739
     23 N         142.4650  140.3806  168.8337 N.3     1  UNL1       -0.2697
     24 C         142.8606  141.8208  168.6949 C.3     1  UNL1        0.0938
     25 C         143.2928  142.3547  167.3614 C.3     1  UNL1        0.1081
     26 N         143.3294  141.4484  166.1667 N.pl3   1  UNL1       -0.3040
     27 C         142.9337  140.0082  166.3057 C.3     1  UNL1        0.1081
     28 C         142.5016  139.4743  167.6391 C.3     1  UNL1        0.0938
     29 C         143.7615  141.9822  164.8332 C.ar    1  UNL1        0.0594
     30 C         145.0071  141.4570  164.1830 C.ar    1  UNL1        0.0154
     31 C         145.4392  141.9909  162.8495 C.ar    1  UNL1        0.0022
     32 C         144.6258  143.0499  162.1662 C.ar    1  UNL1        0.0123
     33 C         143.3803  143.5751  162.8164 C.ar    1  UNL1        0.0694
     34 CL        142.5670  144.6340  162.1332 Cl      1  UNL1       -0.0813
     35 C         142.9481  143.0412  164.1499 C.ar    1  UNL1        0.0815
     36 CL        141.7026  143.5663  164.8002 Cl      1  UNL1       -0.0801
@<TRIPOS>BOND
     1    18    19    1
     2    19    17    1
     3    17     5    1
     4     5     6   ar
     5     6    11    1
     6    11    12   ar
     7    12    13   ar
     8    13    14   ar
     9    14    15   ar
    10    15    16   ar
    11     6     7   ar
    12     7     8   ar
    13     8     1    1
    14     1     2    2
    15     1     3   am
    16     3    20    1
    17    20    21    1
    18    21    22    1
    19    22    23    1
    20    23    24    1
    21    24    25    1
    22    25    26    1
    23    26    29    1
    24    29    30   ar
    25    30    31   ar
    26    31    32   ar
    27    32    33   ar
    28    33    34    1
    29    33    35   ar
    30    35    36    1
    31    26    27    1
    32    27    28    1
    33     8     9   ar
    34     9    10    1
    35     9     5   ar
    36    16    11   ar
    37    28    23    1
    38    35    29   ar
    39     3     4    1
@<TRIPOS>MOLECULE
*****
 36 39 0 0 0
SMALL
GASTEIGER

@<TRIPOS>ATOM
      1 C         141.7044  144.7165  162.2954 C.2     1  UNL1        0.2470
      2 O         140.8847  145.8442  162.8489 O.2     1  UNL1       -0.2701
      3 N         141.8117  144.5252  160.8116 N.am    1  UNL1       -0.3008
      4 H         142.3497  143.7850  160.4483 H       1  UNL1        0.1497
      5 N         144.0270  142.2041  164.1282 N.ar    1  UNL1       -0.3293
      6 C         142.9995  142.4745  165.1870 C.ar    1  UNL1        0.0777
      7 C         142.0044  143.4485  164.6294 C.ar    1  UNL1        0.0243
      8 C         142.4169  143.7801  163.2259 C.ar    1  UNL1        0.0665
      9 C         143.6670  143.0110  162.9161 C.ar    1  UNL1        0.0418
     10 C         144.4240  143.0432  161.6215 C.3     1  UNL1        0.0502
     11 C         142.9720  141.8758  166.5622 C.ar    1  UNL1        0.0970
     12 C         142.4585  140.4809  166.7628 C.ar    1  UNL1        0.0206
     13 C         142.4310  139.8823  168.1379 C.ar    1  UNL1        0.0032
     14 C         142.9170  140.6787  169.3124 C.ar    1  UNL1        0.0207
     15 C         143.4305  142.0737  169.1118 C.ar    1  UNL1        0.0989
     16 N         143.4580  142.6722  167.7367 N.ar    1  UNL1       -0.2424
     17 C         145.2073  141.2877  164.2585 C.3     1  UNL1        0.1058
     18 C         143.8512  139.2518  163.3832 C.3     1  UNL1        0.0021
     19 C         145.0213  139.8038  164.1422 C.3     1  UNL1        0.0245
     20 C         141.0992  145.4615  159.8812 C.3     1  UNL1        0.0911
     21 C         140.1602  144.9189  158.8450 C.3     1  UNL1        0.0386
     22 C         140.1089  143.4437  158.5784 C.3     1  UNL1        0.0739
     23 N         139.8964  142.4837  159.7112 N.3     1  UNL1       -0.2697
     24 C         141.0011  141.5582  160.1270 C.3     1  UNL1        0.0938
     25 C         140.7887  140.5981  161.2599 C.3     1  UNL1        0.1081
     26 N         139.4716  140.5635  161.9768 N.pl3   1  UNL1       -0.3040
     27 C         138.3669  141.4891  161.5608 C.3     1  UNL1        0.1081
     28 C         138.5793  142.4491  160.4280 C.3     1  UNL1        0.0938
     29 C         139.2592  139.6035  163.1095 C.ar    1  UNL1        0.0594
     30 C         139.1436  138.1333  162.8350 C.ar    1  UNL1        0.0154
     31 C         138.9312  137.1733  163.9677 C.ar    1  UNL1        0.0022
     32 C         138.8344  137.6834  165.3750 C.ar    1  UNL1        0.0123
     33 C         138.9499  139.1535  165.6496 C.ar    1  UNL1        0.0694
     34 CL        138.8530  139.6635  167.0568 Cl      1  UNL1       -0.0813
     35 C         139.1623  140.1135  164.5168 C.ar    1  UNL1        0.0815
     36 CL        139.2778  141.5837  164.7912 Cl      1  UNL1       -0.0801
@<TRIPOS>BOND
     1    18    19    1
     2    19    17    1
     3    17     5    1
     4     5     6   ar
     5     6    11    1
     6    11    12   ar
     7    12    13   ar
     8    13    14   ar
     9    14    15   ar
    10    15    16   ar
    11     6     7   ar
    12     7     8   ar
    13     8     1    1
    14     1     2    2
    15     1     3   am
    16     3    20    1
    17    20    21    1
    18    21    22    1
    19    22    23    1
    20    23    24    1
    21    24    25    1
    22    25    26    1
    23    26    29    1
    24    29    30   ar
    25    30    31   ar
    26    31    32   ar
    27    32    33   ar
    28    33    34    1
    29    33    35   ar
    30    35    36    1
    31    26    27    1
    32    27    28    1
    33     8     9   ar
    34     9    10    1
    35     9     5   ar
    36    16    11   ar
    37    28    23    1
    38    35    29   ar
    39     3     4    1
@<TRIPOS>MOLECULE
*****
 36 39 0 0 0
SMALL
GASTEIGER

@<TRIPOS>ATOM
      1 C         140.2172  144.8900  161.8819 C.2     1  UNL1        0.2470
      2 O         139.0088  145.7714  161.9959 O.2     1  UNL1       -0.2701
      3 N         140.8956  144.7154  160.5556 N.am    1  UNL1       -0.3008
      4 H         141.6888  144.1370  160.4807 H       1  UNL1        0.1497
      5 N         142.2626  143.2723  164.7567 N.ar    1  UNL1       -0.3293
      6 C         140.8625  142.9193  165.1629 C.ar    1  UNL1        0.0777
      7 C         139.9259  143.4823  164.1354 C.ar    1  UNL1        0.0243
      8 C         140.7471  144.1833  163.0942 C.ar    1  UNL1        0.0665
      9 C         142.1914  144.0536  163.4782 C.ar    1  UNL1        0.0418
     10 C         143.3592  144.6077  162.7172 C.3     1  UNL1        0.0502
     11 C         140.4683  142.1400  166.3825 C.ar    1  UNL1        0.0970
     12 C         140.6536  142.7367  167.7461 C.ar    1  UNL1        0.0206
     13 C         140.2594  141.9574  168.9656 C.ar    1  UNL1        0.0032
     14 C         139.6798  140.5814  168.8215 C.ar    1  UNL1        0.0207
     15 C         139.4944  139.9847  167.4578 C.ar    1  UNL1        0.0989
     16 N         139.8887  140.7640  166.2383 N.ar    1  UNL1       -0.2424
     17 C         143.5143  142.9081  165.4987 C.3     1  UNL1        0.1058
     18 C         145.4359  141.9078  164.0645 C.3     1  UNL1        0.0021
     19 C         144.3292  141.7274  165.0608 C.3     1  UNL1        0.0245
     20 C         140.3657  145.4222  159.3432 C.3     1  UNL1        0.0911
     21 C         140.1199  144.6571  158.0767 C.3     1  UNL1        0.0386
     22 C         139.2655  143.4245  158.0989 C.3     1  UNL1        0.0739
     23 N         139.4261  142.4202  159.2015 N.3     1  UNL1       -0.2697
     24 C         140.5977  141.4835  159.1978 C.3     1  UNL1        0.0938
     25 C         140.7585  140.4792  160.3004 C.3     1  UNL1        0.1081
     26 N         139.7476  140.4116  161.4066 N.pl3   1  UNL1       -0.3040
     27 C         138.5761  141.3483  161.4101 C.3     1  UNL1        0.1081
     28 C         138.4154  142.3526  160.3076 C.3     1  UNL1        0.0938
     29 C         139.9083  139.4073  162.5091 C.ar    1  UNL1        0.0594
     30 C         138.7762  138.4862  162.8554 C.ar    1  UNL1        0.0154
     31 C         138.9370  137.4819  163.9580 C.ar    1  UNL1        0.0022
     32 C         140.2298  137.3988  164.7141 C.ar    1  UNL1        0.0123
     33 C         141.3618  138.3199  164.3678 C.ar    1  UNL1        0.0694
     34 CL        142.6545  138.2367  165.1239 Cl      1  UNL1       -0.0813
     35 C         141.2011  139.3241  163.2653 C.ar    1  UNL1        0.0815
     36 CL        142.3331  140.2453  162.9188 Cl      1  UNL1       -0.0801
@<TRIPOS>BOND
     1    18    19    1
     2    19    17    1
     3    17     5    1
     4     5     6   ar
     5     6    11    1
     6    11    12   ar
     7    12    13   ar
     8    13    14   ar
     9    14    15   ar
    10    15    16   ar
    11     6     7   ar
    12     7     8   ar
    13     8     1    1
    14     1     2    2
    15     1     3   am
    16     3    20    1
    17    20    21    1
    18    21    22    1
    19    22    23    1
    20    23    24    1
    21    24    25    1
    22    25    26    1
    23    26    29    1
    24    29    30   ar
    25    30    31   ar
    26    31    32   ar
    27    32    33   ar
    28    33    34    1
    29    33    35   ar
    30    35    36    1
    31    26    27    1
    32    27    28    1
    33     8     9   ar
    34     9    10    1
    35     9     5   ar
    36    16    11   ar
    37    28    23    1
    38    35    29   ar
    39     3     4    1
@<TRIPOS>MOLECULE
*****
 36 39 0 0 0
SMALL
GASTEIGER

@<TRIPOS>ATOM
      1 C         140.2410  139.1440  158.7077 C.2     1  UNL1        0.2470
      2 O         139.4455  138.1821  157.8759 O.2     1  UNL1       -0.2701
      3 N         140.8454  140.3617  158.0739 N.am    1  UNL1       -0.3008
      4 H         141.3675  140.9931  158.6198 H       1  UNL1        0.1497
      5 N         141.4479  138.3319  162.3062 N.ar    1  UNL1       -0.3293
      6 C         140.0042  138.6570  162.5511 C.ar    1  UNL1        0.0777
      7 C         139.3764  139.0008  161.2330 C.ar    1  UNL1        0.0243
      8 C         140.4320  138.8881  160.1733 C.ar    1  UNL1        0.0665
      9 C         141.7124  138.4747  160.8366 C.ar    1  UNL1        0.0418
     10 C         143.0264  138.2446  160.1508 C.3     1  UNL1        0.0502
     11 C         139.3102  138.6411  163.8809 C.ar    1  UNL1        0.0970
     12 C         138.8833  139.9295  164.5196 C.ar    1  UNL1        0.0206
     13 C         138.1893  139.9135  165.8492 C.ar    1  UNL1        0.0032
     14 C         137.9222  138.6093  166.5403 C.ar    1  UNL1        0.0207
     15 C         138.3490  137.3209  165.9016 C.ar    1  UNL1        0.0989
     16 N         139.0430  137.3369  164.5719 N.ar    1  UNL1       -0.2424
     17 C         142.4511  137.9338  163.3479 C.3     1  UNL1        0.1058
     18 C         144.3870  139.6016  163.8175 C.3     1  UNL1        0.0021
     19 C         143.0828  138.9788  164.2189 C.3     1  UNL1        0.0245
     20 C         140.6543  140.6176  156.6082 C.3     1  UNL1        0.0911
     21 C         139.4877  141.4331  156.1351 C.3     1  UNL1        0.0386
     22 C         139.2347  142.7905  156.7209 C.3     1  UNL1        0.0739
     23 N         139.2890  142.9883  158.2068 N.3     1  UNL1       -0.2697
     24 C         140.3101  143.9106  158.8038 C.3     1  UNL1        0.0938
     25 C         140.3645  144.1085  160.2898 C.3     1  UNL1        0.1081
     26 N         139.3976  143.3839  161.1787 N.pl3   1  UNL1       -0.3040
     27 C         138.3764  142.4615  160.5815 C.3     1  UNL1        0.1081
     28 C         138.3221  142.2637  159.0957 C.3     1  UNL1        0.0938
     29 C         139.4519  143.5817  162.6646 C.ar    1  UNL1        0.0594
     30 C         138.4308  144.4453  163.3440 C.ar    1  UNL1        0.0154
     31 C         138.4851  144.6431  164.8299 C.ar    1  UNL1        0.0022
     32 C         139.5604  143.9772  165.6364 C.ar    1  UNL1        0.0123
     33 C         140.5815  143.1136  164.9569 C.ar    1  UNL1        0.0694
     34 CL        141.6567  142.4478  165.7633 Cl      1  UNL1       -0.0813
     35 C         140.5272  142.9158  163.4710 C.ar    1  UNL1        0.0815
     36 CL        141.5482  142.0522  162.7915 Cl      1  UNL1       -0.0801
@<TRIPOS>BOND
     1    18    19    1
     2    19    17    1
     3    17     5    1
     4     5     6   ar
     5     6    11    1
     6    11    12   ar
     7    12    13   ar
     8    13    14   ar
     9    14    15   ar
    10    15    16   ar
    11     6     7   ar
    12     7     8   ar
    13     8     1    1
    14     1     2    2
    15     1     3   am
    16     3    20    1
    17    20    21    1
    18    21    22    1
    19    22    23    1
    20    23    24    1
    21    24    25    1
    22    25    26    1
    23    26    29    1
    24    29    30   ar
    25    30    31   ar
    26    31    32   ar
    27    32    33   ar
    28    33    34    1
    29    33    35   ar
    30    35    36    1
    31    26    27    1
    32    27    28    1
    33     8     9   ar
    34     9    10    1
    35     9     5   ar
    36    16    11   ar
    37    28    23    1
    38    35    29   ar
    39     3     4    1
@<TRIPOS>MOLECULE
*****
 36 39 0 0 0
SMALL
GASTEIGER

@<TRIPOS>ATOM
      1 C         141.0885  144.8519  158.9738 C.2     1  UNL1        0.2470
      2 O         141.8736  145.9821  158.3770 O.2     1  UNL1       -0.2701
      3 N         140.0079  144.1854  158.1750 N.am    1  UNL1       -0.3008
      4 H         139.4926  143.4436  158.5667 H       1  UNL1        0.1497
      5 N         141.4084  144.2246  162.7908 N.ar    1  UNL1       -0.3293
      6 C         142.2688  143.1247  162.2432 C.ar    1  UNL1        0.0777
      7 C         142.2537  143.2258  160.7467 C.ar    1  UNL1        0.0243
      8 C         141.3840  144.3882  160.3694 C.ar    1  UNL1        0.0665
      9 C         140.8615  145.0056  161.6328 C.ar    1  UNL1        0.0418
     10 C         139.9520  146.1949  161.7223 C.3     1  UNL1        0.0502
     11 C         143.0136  142.1030  163.0504 C.ar    1  UNL1        0.0970
     12 C         142.2633  141.0133  163.7571 C.ar    1  UNL1        0.0206
     13 C         143.0081  139.9917  164.5643 C.ar    1  UNL1        0.0032
     14 C         144.5032  140.0598  164.6647 C.ar    1  UNL1        0.0207
     15 C         145.2535  141.1495  163.9580 C.ar    1  UNL1        0.0989
     16 N         144.5087  142.1711  163.1509 N.ar    1  UNL1       -0.2424
     17 C         141.1417  144.4960  164.2417 C.3     1  UNL1        0.1058
     18 C         138.7106  144.7523  165.1215 C.3     1  UNL1        0.0021
     19 C         139.9314  143.9082  164.9046 C.3     1  UNL1        0.0245
     20 C         139.7125  144.6492  156.7794 C.3     1  UNL1        0.0911
     21 C         139.2090  143.6748  155.7561 C.3     1  UNL1        0.0386
     22 C         139.4959  142.2106  155.9099 C.3     1  UNL1        0.0739
     23 N         139.4112  141.5676  157.2625 N.3     1  UNL1       -0.2697
     24 C         140.6626  141.1313  157.9650 C.3     1  UNL1        0.0938
     25 C         140.5781  140.4883  159.3177 C.3     1  UNL1        0.1081
     26 N         139.2421  140.2817  159.9677 N.pl3   1  UNL1       -0.3040
     27 C         137.9907  140.7180  159.2650 C.3     1  UNL1        0.1081
     28 C         138.0753  141.3610  157.9124 C.3     1  UNL1        0.0938
     29 C         139.1575  139.6387  161.3202 C.ar    1  UNL1        0.0594
     30 C         139.4693  138.1800  161.4780 C.ar    1  UNL1        0.0154
     31 C         139.3847  137.5371  162.8306 C.ar    1  UNL1        0.0022
     32 C         138.9884  138.3528  164.0253 C.ar    1  UNL1        0.0123
     33 C         138.6766  139.8115  163.8675 C.ar    1  UNL1        0.0694
     34 CL        138.2802  140.6273  165.0622 Cl      1  UNL1       -0.0813
     35 C         138.7611  140.4545  162.5150 C.ar    1  UNL1        0.0815
     36 CL        138.4494  141.9132  162.3571 Cl      1  UNL1       -0.0801
@<TRIPOS>BOND
     1    18    19    1
     2    19    17    1
     3    17     5    1
     4     5     6   ar
     5     6    11    1
     6    11    12   ar
     7    12    13   ar
     8    13    14   ar
     9    14    15   ar
    10    15    16   ar
    11     6     7   ar
    12     7     8   ar
    13     8     1    1
    14     1     2    2
    15     1     3   am
    16     3    20    1
    17    20    21    1
    18    21    22    1
    19    22    23    1
    20    23    24    1
    21    24    25    1
    22    25    26    1
    23    26    29    1
    24    29    30   ar
    25    30    31   ar
    26    31    32   ar
    27    32    33   ar
    28    33    34    1
    29    33    35   ar
    30    35    36    1
    31    26    27    1
    32    27    28    1
    33     8     9   ar
    34     9    10    1
    35     9     5   ar
    36    16    11   ar
    37    28    23    1
    38    35    29   ar
    39     3     4    1
@<TRIPOS>MOLECULE
*****
 36 39 0 0 0
SMALL
GASTEIGER

@<TRIPOS>ATOM
      1 C         138.9889  139.6229  159.2298 C.2     1  UNL1        0.2470
      2 O         137.9647  139.8827  158.1652 O.2     1  UNL1       -0.2701
      3 N         140.1664  138.7405  158.9383 N.am    1  UNL1       -0.3008
      4 H         140.8386  138.5700  159.6370 H       1  UNL1        0.1497
      5 N         138.3598  141.8385  162.3540 N.ar    1  UNL1       -0.3293
      6 C         138.8401  140.5685  162.9913 C.ar    1  UNL1        0.0777
      7 C         139.1342  139.5839  161.8986 C.ar    1  UNL1        0.0243
      8 C         138.8357  140.2455  160.5859 C.ar    1  UNL1        0.0665
      9 C         138.3570  141.6390  160.8673 C.ar    1  UNL1        0.0418
     10 C         137.9476  142.6545  159.8421 C.3     1  UNL1        0.0502
     11 C         138.9985  140.3256  164.4631 C.ar    1  UNL1        0.0970
     12 C         138.0970  139.3530  165.1640 C.ar    1  UNL1        0.0206
     13 C         138.2554  139.1102  166.6357 C.ar    1  UNL1        0.0032
     14 C         139.3153  139.8400  167.4065 C.ar    1  UNL1        0.0207
     15 C         140.2168  140.8126  166.7055 C.ar    1  UNL1        0.0989
     16 N         140.0584  141.0554  165.2338 N.ar    1  UNL1       -0.2424
     17 C         137.9535  143.0887  163.0764 C.3     1  UNL1        0.1058
     18 C         138.8323  144.7250  164.8930 C.3     1  UNL1        0.0021
     19 C         138.9996  144.0455  163.5663 C.3     1  UNL1        0.0245
     20 C         140.3196  138.1179  157.5822 C.3     1  UNL1        0.0911
     21 C         141.5157  137.2651  157.2793 C.3     1  UNL1        0.0386
     22 C         142.8975  137.8094  157.4894 C.3     1  UNL1        0.0739
     23 N         143.1925  138.6661  158.6849 N.3     1  UNL1       -0.2697
     24 C         143.4658  140.1304  158.5090 C.3     1  UNL1        0.0938
     25 C         143.7608  140.9872  159.7045 C.3     1  UNL1        0.1081
     26 N         143.7825  140.3795  161.0757 N.pl3   1  UNL1       -0.3040
     27 C         143.5092  138.9151  161.2515 C.3     1  UNL1        0.1081
     28 C         143.2142  138.0584  160.0561 C.3     1  UNL1        0.0938
     29 C         144.0775  141.2362  162.2711 C.ar    1  UNL1        0.0594
     30 C         145.3479  141.0350  163.0429 C.ar    1  UNL1        0.0154
     31 C         145.6429  141.8917  164.2383 C.ar    1  UNL1        0.0022
     32 C         144.6675  142.9496  164.6620 C.ar    1  UNL1        0.0123
     33 C         143.3971  143.1509  163.8902 C.ar    1  UNL1        0.0694
     34 CL        142.4218  144.2087  164.3138 Cl      1  UNL1       -0.0813
     35 C         143.1021  142.2942  162.6948 C.ar    1  UNL1        0.0815
     36 CL        141.8318  142.4953  161.9229 Cl      1  UNL1       -0.0801
@<TRIPOS>BOND
     1    18    19    1
     2    19    17    1
     3    17     5    1
     4     5     6   ar
     5     6    11    1
     6    11    12   ar
     7    12    13   ar
     8    13    14   ar
     9    14    15   ar
    10    15    16   ar
    11     6     7   ar
    12     7     8   ar
    13     8     1    1
    14     1     2    2
    15     1     3   am
    16     3    20    1
    17    20    21    1
    18    21    22    1
    19    22    23    1
    20    23    24    1
    21    24    25    1
    22    25    26    1
    23    26    29    1
    24    29    30   ar
    25    30    31   ar
    26    31    32   ar
    27    32    33   ar
    28    33    34    1
    29    33    35   ar
    30    35    36    1
    31    26    27    1
    32    27    28    1
    33     8     9   ar
    34     9    10    1
    35     9     5   ar
    36    16    11   ar
    37    28    23    1
    38    35    29   ar
    39     3     4    1
@<TRIPOS>MOLECULE
*****
 36 39 0 0 0
SMALL
GASTEIGER

@<TRIPOS>ATOM
      1 C         143.2243  142.1370  158.7385 C.2     1  UNL1        0.2470
      2 O         144.6219  142.2953  158.2174 O.2     1  UNL1       -0.2701
      3 N         142.1909  141.4312  157.9115 N.am    1  UNL1       -0.3008
      4 H         141.2736  141.3273  158.2535 H       1  UNL1        0.1497
      5 N         141.8960  144.0672  161.8330 N.ar    1  UNL1       -0.3293
      6 C         142.7029  142.9866  162.4898 C.ar    1  UNL1        0.0777
      7 C         143.2987  142.1321  161.4105 C.ar    1  UNL1        0.0243
      8 C         142.8600  142.6844  160.0867 C.ar    1  UNL1        0.0665
      9 C         141.9931  143.8804  160.3478 C.ar    1  UNL1        0.0418
     10 C         141.3382  144.7389  159.3066 C.3     1  UNL1        0.0502
     11 C         142.8825  142.7944  163.9666 C.ar    1  UNL1        0.0970
     12 C         144.0996  143.3415  164.6516 C.ar    1  UNL1        0.0206
     13 C         144.2791  143.1493  166.1283 C.ar    1  UNL1        0.0032
     14 C         143.2415  142.4100  166.9200 C.ar    1  UNL1        0.0207
     15 C         142.0243  141.8630  166.2350 C.ar    1  UNL1        0.0989
     16 N         141.8448  142.0552  164.7583 N.ar    1  UNL1       -0.2424
     17 C         141.1270  145.1452  162.5376 C.3     1  UNL1        0.1058
     18 C         139.4461  144.7919  164.4868 C.3     1  UNL1        0.0021
     19 C         139.7306  144.8796  163.0167 C.3     1  UNL1        0.0245
     20 C         142.5552  140.8837  156.5633 C.3     1  UNL1        0.0911
     21 C         142.1688  139.4823  156.1935 C.3     1  UNL1        0.0386
     22 C         142.3422  138.3702  157.1849 C.3     1  UNL1        0.0739
     23 N         141.7042  138.4661  158.5390 N.3     1  UNL1       -0.2697
     24 C         140.2096  138.4896  158.6638 C.3     1  UNL1        0.0938
     25 C         139.5714  138.5855  160.0180 C.3     1  UNL1        0.1081
     26 N         140.4279  138.6580  161.2473 N.pl3   1  UNL1       -0.3040
     27 C         141.9225  138.6346  161.1224 C.3     1  UNL1        0.1081
     28 C         142.5606  138.5386  159.7683 C.3     1  UNL1        0.0938
     29 C         139.7898  138.7540  162.6014 C.ar    1  UNL1        0.0594
     30 C         139.6371  137.5247  163.4473 C.ar    1  UNL1        0.0154
     31 C         138.9990  137.6207  164.8014 C.ar    1  UNL1        0.0022
     32 C         138.5136  138.9459  165.3096 C.ar    1  UNL1        0.0123
     33 C         138.6663  140.1752  164.4637 C.ar    1  UNL1        0.0694
     34 CL        138.1810  141.5003  164.9718 Cl      1  UNL1       -0.0813
     35 C         139.3044  140.0792  163.1096 C.ar    1  UNL1        0.0815
     36 CL        139.4573  141.3084  162.2636 Cl      1  UNL1       -0.0801
@<TRIPOS>BOND
     1    18    19    1
     2    19    17    1
     3    17     5    1
     4     5     6   ar
     5     6    11    1
     6    11    12   ar
     7    12    13   ar
     8    13    14   ar
     9    14    15   ar
    10    15    16   ar
    11     6     7   ar
    12     7     8   ar
    13     8     1    1
    14     1     2    2
    15     1     3   am
    16     3    20    1
    17    20    21    1
    18    21    22    1
    19    22    23    1
    20    23    24    1
    21    24    25    1
    22    25    26    1
    23    26    29    1
    24    29    30   ar
    25    30    31   ar
    26    31    32   ar
    27    32    33   ar
    28    33    34    1
    29    33    35   ar
    30    35    36    1
    31    26    27    1
    32    27    28    1
    33     8     9   ar
    34     9    10    1
    35     9     5   ar
    36    16    11   ar
    37    28    23    1
    38    35    29   ar
    39     3     4    1
@<TRIPOS>MOLECULE
*****
 36 39 0 0 0
SMALL
GASTEIGER

@<TRIPOS>ATOM
      1 C         138.9214  139.4566  159.1554 C.2     1  UNL1        0.2470
      2 O         138.0252  140.0078  158.0863 O.2     1  UNL1       -0.2701
      3 N         139.9499  138.4204  158.8112 N.am    1  UNL1       -0.3008
      4 H         140.5381  138.0586  159.5129 H       1  UNL1        0.1497
      5 N         138.3873  139.9987  162.9614 N.ar    1  UNL1       -0.3293
      6 C         138.7844  141.3778  162.5252 C.ar    1  UNL1        0.0777
      7 C         139.0329  141.3426  161.0463 C.ar    1  UNL1        0.0243
      8 C         138.7893  139.9417  160.5686 C.ar    1  UNL1        0.0665
      9 C         138.3903  139.1111  161.7522 C.ar    1  UNL1        0.0418
     10 C         138.0534  137.6496  161.7304 C.3     1  UNL1        0.0502
     11 C         138.9109  142.5809  163.4121 C.ar    1  UNL1        0.0970
     12 C         137.6824  143.2212  163.9872 C.ar    1  UNL1        0.0206
     13 C         137.8089  144.4243  164.8741 C.ar    1  UNL1        0.0032
     14 C         139.1640  144.9870  165.1859 C.ar    1  UNL1        0.0207
     15 C         140.3925  144.3467  164.6109 C.ar    1  UNL1        0.0989
     16 N         140.2659  143.1436  163.7240 N.ar    1  UNL1       -0.2424
     17 C         138.0469  139.5805  164.3612 C.3     1  UNL1        0.1058
     18 C         138.7483  139.3137  166.8485 C.3     1  UNL1        0.0021
     19 C         138.9834  139.9007  165.4883 C.3     1  UNL1        0.0245
     20 C         140.0821  137.9353  157.3980 C.3     1  UNL1        0.0911
     21 C         141.4419  137.7063  156.8077 C.3     1  UNL1        0.0386
     22 C         142.6024  137.3822  157.7010 C.3     1  UNL1        0.0739
     23 N         143.0009  138.3354  158.7885 N.3     1  UNL1       -0.2697
     24 C         143.4144  139.7356  158.4440 C.3     1  UNL1        0.0938
     25 C         143.8131  140.6889  159.5314 C.3     1  UNL1        0.1081
     26 N         143.7981  140.2421  160.9633 N.pl3   1  UNL1       -0.3040
     27 C         143.3846  138.8419  161.3076 C.3     1  UNL1        0.1081
     28 C         142.9860  137.8886  160.2202 C.3     1  UNL1        0.0938
     29 C         144.1967  141.1953  162.0506 C.ar    1  UNL1        0.0594
     30 C         145.1451  140.7530  163.1253 C.ar    1  UNL1        0.0154
     31 C         145.5437  141.7063  164.2127 C.ar    1  UNL1        0.0022
     32 C         144.9938  143.1019  164.2254 C.ar    1  UNL1        0.0123
     33 C         144.0454  143.5441  163.1507 C.ar    1  UNL1        0.0694
     34 CL        143.4957  144.9396  163.1634 Cl      1  UNL1       -0.0813
     35 C         143.6469  142.5909  162.0633 C.ar    1  UNL1        0.0815
     36 CL        142.6985  143.0331  160.9886 Cl      1  UNL1       -0.0801
@<TRIPOS>BOND
     1    18    19    1
     2    19    17    1
     3    17     5    1
     4     5     6   ar
     5     6    11    1
     6    11    12   ar
     7    12    13   ar
     8    13    14   ar
     9    14    15   ar
    10    15    16   ar
    11     6     7   ar
    12     7     8   ar
    13     8     1    1
    14     1     2    2
    15     1     3   am
    16     3    20    1
    17    20    21    1
    18    21    22    1
    19    22    23    1
    20    23    24    1
    21    24    25    1
    22    25    26    1
    23    26    29    1
    24    29    30   ar
    25    30    31   ar
    26    31    32   ar
    27    32    33   ar
    28    33    34    1
    29    33    35   ar
    30    35    36    1
    31    26    27    1
    32    27    28    1
    33     8     9   ar
    34     9    10    1
    35     9     5   ar
    36    16    11   ar
    37    28    23    1
    38    35    29   ar
    39     3     4    1
