@<TRIPOS>MOLECULE
*****
 28 31 0 0 0
SMALL
GASTEIGER

@<TRIPOS>ATOM
      1 C         138.6871  139.9421  163.6235 C.ar    1  UNL1        0.1547
      2 C         138.9575  139.7488  162.1608 C.ar    1  UNL1        0.0384
      3 C         139.7796  138.5827  161.6978 C.ar    1  UNL1        0.0034
      4 C         140.3314  137.6100  162.6975 C.ar    1  UNL1        0.0017
      5 C         140.0609  137.8034  164.1603 C.ar    1  UNL1        0.0206
      6 C         139.2388  138.9694  164.6232 C.ar    1  UNL1        0.0994
      7 N         138.9684  139.1628  166.0859 N.ar    1  UNL1       -0.2839
      8 C         137.8327  138.5615  166.8596 C.ar    1  UNL1        0.1826
      9 N         137.9486  139.0185  168.2837 N.ar    1  UNL1       -0.2280
     10 C         139.1561  139.9022  168.3900 C.ar    1  UNL1        0.0786
     11 C         139.6470  140.5780  169.6358 C.3     1  UNL1        0.0538
     12 C         139.7863  139.9914  167.0318 C.ar    1  UNL1        0.0963
     13 C         137.4133  142.1455  163.1016 C.3     1  UNL1        0.2525
     14 O         137.8650  141.1082  164.0865 O.3     1  UNL1       -0.4700
     15 C         140.0500  138.3893  160.2351 C.2     1  UNL1        0.0079
     16 C         141.4629  138.3131  159.7373 C.2     1  UNL1        0.0937
     17 C         141.7334  138.1197  158.2746 C.2     1  UNL1        0.3691
     18 N         140.6207  137.7167  157.3530 N.2     1  UNL1       -0.0400
     19 C         140.8911  137.5233  155.8902 C.2     1  UNL1        0.1827
     20 C         139.7784  137.1203  154.9687 C.3     1  UNL1        0.1118
     21 C         140.0489  136.9269  153.5060 C.2     1  UNL1        0.0437
     22 CL        138.9361  136.5239  152.5843 Cl      1  UNL1       -0.0864
     23 C         141.4321  137.1367  152.9649 C.2     1  UNL1        0.0078
     24 C         142.5448  137.5397  153.8865 C.2     1  UNL1        0.0109
     25 C         142.2743  137.7330  155.3492 C.2     1  UNL1        0.1210
     26 C         143.3871  138.1361  156.2708 C.2     1  UNL1        0.3788
     27 O         144.7703  138.3458  155.7298 O.2     1  UNL1       -0.2376
     28 N         143.1166  138.3294  157.7335 N.am    1  UNL1        0.0364
@<TRIPOS>BOND
     1    13    14    1
     2    14     1    1
     3     1     2   ar
     4     2     3   ar
     5     3    15    1
     6    15    16    2
     7    16    17    1
     8    17    18    1
     9    18    19    2
    10    19    20    1
    11    20    21    1
    12    21    22    1
    13    21    23    2
    14    23    24    1
    15    24    25    2
    16    25    26    1
    17    26    27    2
    18    26    28    1
    19     3     4   ar
    20     4     5   ar
    21     5     6   ar
    22     6     7    1
    23     7     8   ar
    24     8     9   ar
    25     9    10   ar
    26    10    11    1
    27    10    12   ar
    28     6     1   ar
    29    12     7   ar
    30    28    17    2
    31    25    19    1
@<TRIPOS>MOLECULE
*****
 28 31 0 0 0
SMALL
GASTEIGER

@<TRIPOS>ATOM
      1 C         140.1540  138.0666  157.6657 C.ar    1  UNL1        0.1547
      2 C         139.9282  138.5596  159.0641 C.ar    1  UNL1        0.0384
      3 C         141.0605  138.5696  160.0480 C.ar    1  UNL1        0.0034
      4 C         142.4186  138.0864  159.6332 C.ar    1  UNL1        0.0017
      5 C         142.6445  137.5934  158.2346 C.ar    1  UNL1        0.0206
      6 C         141.5122  137.5834  157.2509 C.ar    1  UNL1        0.0994
      7 N         141.7380  137.0904  155.8524 N.ar    1  UNL1       -0.2839
      8 C         142.2125  137.9149  154.6927 C.ar    1  UNL1        0.1826
      9 N         142.2968  137.0203  153.4915 N.ar    1  UNL1       -0.2280
     10 C         141.8744  135.6428  153.9090 C.ar    1  UNL1        0.0786
     11 C         141.8088  134.4343  153.0230 C.3     1  UNL1        0.0538
     12 C         141.5291  135.6861  155.3680 C.ar    1  UNL1        0.0963
     13 C         138.8036  139.2333  155.7776 C.3     1  UNL1        0.2525
     14 O         139.0217  138.0566  156.6819 O.3     1  UNL1       -0.4700
     15 C         140.8346  139.0626  161.4465 C.2     1  UNL1        0.0079
     16 C         140.3963  138.1075  162.5168 C.2     1  UNL1        0.0937
     17 C         140.1704  138.6006  163.9154 C.2     1  UNL1        0.3691
     18 N         141.2209  139.4247  164.5989 N.2     1  UNL1       -0.0400
     19 C         140.9950  139.9178  165.9975 C.2     1  UNL1        0.1827
     20 C         142.0455  140.7419  166.6810 C.3     1  UNL1        0.1118
     21 C         141.8195  141.2349  168.0795 C.2     1  UNL1        0.0437
     22 CL        142.8700  142.0591  168.7631 Cl      1  UNL1       -0.0864
     23 C         140.5432  140.9038  168.7945 C.2     1  UNL1        0.0078
     24 C         139.4927  140.0796  168.1110 C.2     1  UNL1        0.0109
     25 C         139.7186  139.5866  166.7125 C.2     1  UNL1        0.1210
     26 C         138.6681  138.7624  166.0289 C.2     1  UNL1        0.3788
     27 O         137.3917  138.4313  166.7438 O.2     1  UNL1       -0.2376
     28 N         138.8941  138.2694  164.6303 N.am    1  UNL1        0.0364
@<TRIPOS>BOND
     1    13    14    1
     2    14     1    1
     3     1     2   ar
     4     2     3   ar
     5     3    15    1
     6    15    16    2
     7    16    17    1
     8    17    18    1
     9    18    19    2
    10    19    20    1
    11    20    21    1
    12    21    22    1
    13    21    23    2
    14    23    24    1
    15    24    25    2
    16    25    26    1
    17    26    27    2
    18    26    28    1
    19     3     4   ar
    20     4     5   ar
    21     5     6   ar
    22     6     7    1
    23     7     8   ar
    24     8     9   ar
    25     9    10   ar
    26    10    11    1
    27    10    12   ar
    28     6     1   ar
    29    12     7   ar
    30    28    17    2
    31    25    19    1
@<TRIPOS>MOLECULE
*****
 28 31 0 0 0
SMALL
GASTEIGER

@<TRIPOS>ATOM
      1 C         141.4184  139.1206  159.8686 C.ar    1  UNL1        0.1547
      2 C         141.1471  139.4343  161.3101 C.ar    1  UNL1        0.0384
      3 C         142.0326  138.8683  162.3804 C.ar    1  UNL1        0.0034
      4 C         143.1894  137.9885  162.0092 C.ar    1  UNL1        0.0017
      5 C         143.4607  137.6748  160.5676 C.ar    1  UNL1        0.0206
      6 C         142.5752  138.2409  159.4974 C.ar    1  UNL1        0.0994
      7 N         142.8464  137.9271  158.0559 N.ar    1  UNL1       -0.2839
      8 C         143.2124  138.9187  156.9915 C.ar    1  UNL1        0.1826
      9 N         143.3915  138.1711  155.7033 N.ar    1  UNL1       -0.2280
     10 C         143.1363  136.7175  155.9717 C.ar    1  UNL1        0.0786
     11 C         143.2058  135.6094  154.9633 C.3     1  UNL1        0.0538
     12 C         142.7994  136.5667  157.4256 C.ar    1  UNL1        0.0963
     13 C         139.4762  138.8289  158.1678 C.3     1  UNL1        0.2525
     14 O         140.5329  139.6867  158.7984 O.3     1  UNL1       -0.4700
     15 C         141.7614  139.1820  163.8219 C.2     1  UNL1        0.0079
     16 C         142.8797  139.6310  164.7150 C.2     1  UNL1        0.0937
     17 C         142.6084  139.9448  166.1566 C.2     1  UNL1        0.3691
     18 N         141.9794  141.2532  166.5339 N.2     1  UNL1       -0.0400
     19 C         141.7082  141.5669  167.9755 C.2     1  UNL1        0.1827
     20 C         141.0792  142.8753  168.3528 C.3     1  UNL1        0.1118
     21 C         140.8079  143.1890  169.7943 C.2     1  UNL1        0.0437
     22 CL        140.1789  144.4974  170.1717 Cl      1  UNL1       -0.0864
     23 C         141.1657  142.1943  170.8585 C.2     1  UNL1        0.0078
     24 C         141.7948  140.8859  170.4812 C.2     1  UNL1        0.0109
     25 C         142.0660  140.5722  169.0397 C.2     1  UNL1        0.1210
     26 C         142.6950  139.2638  168.6623 C.2     1  UNL1        0.3788
     27 O         143.0528  138.2690  169.7265 O.2     1  UNL1       -0.2376
     28 N         142.9662  138.9501  167.2208 N.am    1  UNL1        0.0364
@<TRIPOS>BOND
     1    13    14    1
     2    14     1    1
     3     1     2   ar
     4     2     3   ar
     5     3    15    1
     6    15    16    2
     7    16    17    1
     8    17    18    1
     9    18    19    2
    10    19    20    1
    11    20    21    1
    12    21    22    1
    13    21    23    2
    14    23    24    1
    15    24    25    2
    16    25    26    1
    17    26    27    2
    18    26    28    1
    19     3     4   ar
    20     4     5   ar
    21     5     6   ar
    22     6     7    1
    23     7     8   ar
    24     8     9   ar
    25     9    10   ar
    26    10    11    1
    27    10    12   ar
    28     6     1   ar
    29    12     7   ar
    30    28    17    2
    31    25    19    1
@<TRIPOS>MOLECULE
*****
 28 31 0 0 0
SMALL
GASTEIGER

@<TRIPOS>ATOM
      1 C         143.6398  139.8689  161.2037 C.ar    1  UNL1        0.1547
      2 C         143.4922  138.6075  160.4056 C.ar    1  UNL1        0.0384
      3 C         142.8520  138.6485  159.0496 C.ar    1  UNL1        0.0034
      4 C         142.3594  139.9509  158.4918 C.ar    1  UNL1        0.0017
      5 C         142.5071  141.2123  159.2901 C.ar    1  UNL1        0.0206
      6 C         143.1472  141.1713  160.6459 C.ar    1  UNL1        0.0994
      7 N         143.2948  142.4327  161.4441 N.ar    1  UNL1       -0.2839
      8 C         144.5527  143.2346  161.6011 C.ar    1  UNL1        0.1826
      9 N         144.2457  144.4113  162.4794 N.ar    1  UNL1       -0.2280
     10 C         142.7981  144.3364  162.8653 C.ar    1  UNL1        0.0786
     11 C         142.0667  145.3129  163.7378 C.3     1  UNL1        0.0538
     12 C         142.2104  143.1137  162.2255 C.ar    1  UNL1        0.0963
     13 C         143.4309  139.6635  163.7852 C.3     1  UNL1        0.2525
     14 O         144.2800  139.8278  162.5596 O.3     1  UNL1       -0.4700
     15 C         142.7044  137.3871  158.2515 C.2     1  UNL1        0.0079
     16 C         143.0910  137.3670  156.8023 C.2     1  UNL1        0.0937
     17 C         142.9434  136.1056  156.0041 C.2     1  UNL1        0.3691
     18 N         143.7238  134.8821  156.3838 N.2     1  UNL1       -0.0400
     19 C         143.5762  133.6207  155.5856 C.2     1  UNL1        0.1827
     20 C         144.3565  132.3972  155.9653 C.3     1  UNL1        0.1118
     21 C         144.2089  131.1359  155.1670 C.2     1  UNL1        0.0437
     22 CL        144.9893  129.9124  155.5467 Cl      1  UNL1       -0.0864
     23 C         143.2809  131.0980  153.9891 C.2     1  UNL1        0.0078
     24 C         142.5006  132.3214  153.6094 C.2     1  UNL1        0.0109
     25 C         142.6482  133.5828  154.4077 C.2     1  UNL1        0.1210
     26 C         141.8678  134.8063  154.0280 C.2     1  UNL1        0.3788
     27 O         140.9399  134.7684  152.8501 O.2     1  UNL1       -0.2376
     28 N         142.0154  136.0676  154.8262 N.am    1  UNL1        0.0364
@<TRIPOS>BOND
     1    13    14    1
     2    14     1    1
     3     1     2   ar
     4     2     3   ar
     5     3    15    1
     6    15    16    2
     7    16    17    1
     8    17    18    1
     9    18    19    2
    10    19    20    1
    11    20    21    1
    12    21    22    1
    13    21    23    2
    14    23    24    1
    15    24    25    2
    16    25    26    1
    17    26    27    2
    18    26    28    1
    19     3     4   ar
    20     4     5   ar
    21     5     6   ar
    22     6     7    1
    23     7     8   ar
    24     8     9   ar
    25     9    10   ar
    26    10    11    1
    27    10    12   ar
    28     6     1   ar
    29    12     7   ar
    30    28    17    2
    31    25    19    1
@<TRIPOS>MOLECULE
*****
 28 31 0 0 0
SMALL
GASTEIGER

@<TRIPOS>ATOM
      1 C         144.0064  139.3126  163.8206 C.ar    1  UNL1        0.1547
      2 C         143.9643  138.7981  162.4123 C.ar    1  UNL1        0.0384
      3 C         142.7248  138.1307  161.8943 C.ar    1  UNL1        0.0034
      4 C         141.5275  137.9777  162.7848 C.ar    1  UNL1        0.0017
      5 C         141.5696  138.4923  164.1932 C.ar    1  UNL1        0.0206
      6 C         142.8091  139.1597  164.7111 C.ar    1  UNL1        0.0994
      7 N         142.8511  139.6741  166.1194 N.ar    1  UNL1       -0.2839
      8 C         143.0363  138.8452  167.3558 C.ar    1  UNL1        0.1826
      9 N         143.0151  139.7667  168.5393 N.ar    1  UNL1       -0.2280
     10 C         142.8167  141.1652  168.0343 C.ar    1  UNL1        0.0786
     11 C         142.7342  142.4033  168.8768 C.3     1  UNL1        0.0538
     12 C         142.7154  141.1080  166.5388 C.ar    1  UNL1        0.0963
     13 C         145.6543  141.3212  163.8051 C.3     1  UNL1        0.2525
     14 O         145.2459  139.9800  164.3385 O.3     1  UNL1       -0.4700
     15 C         142.6828  137.6162  160.4860 C.2     1  UNL1        0.0079
     16 C         142.2424  138.5178  159.3710 C.2     1  UNL1        0.0937
     17 C         142.2003  138.0034  157.9626 C.2     1  UNL1        0.3691
     18 N         142.4701  136.5542  157.6851 N.2     1  UNL1       -0.0400
     19 C         142.4280  136.0398  156.2766 C.2     1  UNL1        0.1827
     20 C         142.6978  134.5906  155.9991 C.3     1  UNL1        0.1118
     21 C         142.6557  134.0762  154.5907 C.2     1  UNL1        0.0437
     22 CL        142.9255  132.6270  154.3132 Cl      1  UNL1       -0.0864
     23 C         142.3438  135.0110  153.4599 C.2     1  UNL1        0.0078
     24 C         142.0740  136.4602  153.7374 C.2     1  UNL1        0.0109
     25 C         142.1161  136.9746  155.1457 C.2     1  UNL1        0.1210
     26 C         141.8463  138.4238  155.4233 C.2     1  UNL1        0.3788
     27 O         141.5345  139.3586  154.2924 O.2     1  UNL1       -0.2376
     28 N         141.8885  138.9382  156.8317 N.am    1  UNL1        0.0364
@<TRIPOS>BOND
     1    13    14    1
     2    14     1    1
     3     1     2   ar
     4     2     3   ar
     5     3    15    1
     6    15    16    2
     7    16    17    1
     8    17    18    1
     9    18    19    2
    10    19    20    1
    11    20    21    1
    12    21    22    1
    13    21    23    2
    14    23    24    1
    15    24    25    2
    16    25    26    1
    17    26    27    2
    18    26    28    1
    19     3     4   ar
    20     4     5   ar
    21     5     6   ar
    22     6     7    1
    23     7     8   ar
    24     8     9   ar
    25     9    10   ar
    26    10    11    1
    27    10    12   ar
    28     6     1   ar
    29    12     7   ar
    30    28    17    2
    31    25    19    1
@<TRIPOS>MOLECULE
*****
 28 31 0 0 0
SMALL
GASTEIGER

@<TRIPOS>ATOM
      1 C         142.4510  137.6795  157.8536 C.ar    1  UNL1        0.1547
      2 C         142.7937  137.7533  159.3120 C.ar    1  UNL1        0.0384
      3 C         141.7713  138.2331  160.2994 C.ar    1  UNL1        0.0034
      4 C         140.4063  138.6390  159.8282 C.ar    1  UNL1        0.0017
      5 C         140.0637  138.5651  158.3696 C.ar    1  UNL1        0.0206
      6 C         141.0860  138.0854  157.3824 C.ar    1  UNL1        0.0994
      7 N         140.7433  138.0116  155.9240 N.ar    1  UNL1       -0.2839
      8 C         140.8748  139.1271  154.9298 C.ar    1  UNL1        0.1826
      9 N         140.4217  138.6142  153.5949 N.ar    1  UNL1       -0.2280
     10 C         140.0102  137.1816  153.7642 C.ar    1  UNL1        0.0786
     11 C         139.4911  136.2799  152.6838 C.3     1  UNL1        0.0538
     12 C         140.2089  136.8092  155.2035 C.ar    1  UNL1        0.0963
     13 C         143.5247  135.7501  156.4845 C.3     1  UNL1        0.2525
     14 O         143.4733  137.1998  156.8664 O.3     1  UNL1       -0.4700
     15 C         142.1140  138.3069  161.7578 C.2     1  UNL1        0.0079
     16 C         141.1687  138.9662  162.7178 C.2     1  UNL1        0.0937
     17 C         141.5114  139.0400  164.1764 C.2     1  UNL1        0.3691
     18 N         140.5439  139.6546  165.1439 N.2     1  UNL1       -0.0400
     19 C         140.8865  139.7285  166.6024 C.2     1  UNL1        0.1827
     20 C         139.9190  140.3431  167.5699 C.3     1  UNL1        0.1118
     21 C         140.2617  140.4169  169.0284 C.2     1  UNL1        0.0437
     22 CL        139.2942  141.0315  169.9960 Cl      1  UNL1       -0.0864
     23 C         141.5719  139.8761  169.5193 C.2     1  UNL1        0.0078
     24 C         142.5394  139.2615  168.5517 C.2     1  UNL1        0.0109
     25 C         142.1967  139.1877  167.0933 C.2     1  UNL1        0.1210
     26 C         143.1642  138.5731  166.1257 C.2     1  UNL1        0.3788
     27 O         144.4744  138.0323  166.6166 O.2     1  UNL1       -0.2376
     28 N         142.8216  138.4993  164.6673 N.am    1  UNL1        0.0364
@<TRIPOS>BOND
     1    13    14    1
     2    14     1    1
     3     1     2   ar
     4     2     3   ar
     5     3    15    1
     6    15    16    2
     7    16    17    1
     8    17    18    1
     9    18    19    2
    10    19    20    1
    11    20    21    1
    12    21    22    1
    13    21    23    2
    14    23    24    1
    15    24    25    2
    16    25    26    1
    17    26    27    2
    18    26    28    1
    19     3     4   ar
    20     4     5   ar
    21     5     6   ar
    22     6     7    1
    23     7     8   ar
    24     8     9   ar
    25     9    10   ar
    26    10    11    1
    27    10    12   ar
    28     6     1   ar
    29    12     7   ar
    30    28    17    2
    31    25    19    1
@<TRIPOS>MOLECULE
*****
 28 31 0 0 0
SMALL
GASTEIGER

@<TRIPOS>ATOM
      1 C         141.2447  138.9941  164.9444 C.ar    1  UNL1        0.1547
      2 C         141.1356  138.4847  163.5378 C.ar    1  UNL1        0.0384
      3 C         142.3592  138.3984  162.6744 C.ar    1  UNL1        0.0034
      4 C         143.6918  138.8215  163.2177 C.ar    1  UNL1        0.0017
      5 C         143.8008  139.3310  164.6243 C.ar    1  UNL1        0.0206
      6 C         142.5773  139.4172  165.4877 C.ar    1  UNL1        0.0994
      7 N         142.6863  139.9267  166.8943 N.ar    1  UNL1       -0.2839
      8 C         142.8269  139.0855  168.1283 C.ar    1  UNL1        0.1826
      9 N         142.9014  140.0057  169.3106 N.ar    1  UNL1       -0.2280
     10 C         142.8068  141.4156  168.8072 C.ar    1  UNL1        0.0786
     11 C         142.8394  142.6564  169.6493 C.3     1  UNL1        0.0538
     12 C         142.6739  141.3668  167.3140 C.ar    1  UNL1        0.0963
     13 C         139.1979  140.3342  165.8188 C.3     1  UNL1        0.2525
     14 O         140.0211  139.0804  165.8078 O.3     1  UNL1       -0.4700
     15 C         142.2502  137.8890  161.2678 C.2     1  UNL1        0.0079
     16 C         142.8719  138.6594  160.1409 C.2     1  UNL1        0.0937
     17 C         142.7628  138.1500  158.7342 C.2     1  UNL1        0.3691
     18 N         143.0319  136.7046  158.4370 N.2     1  UNL1       -0.0400
     19 C         142.9229  136.1952  157.0303 C.2     1  UNL1        0.1827
     20 C         143.1919  134.7498  156.7331 C.3     1  UNL1        0.1118
     21 C         143.0829  134.2404  155.3265 C.2     1  UNL1        0.0437
     22 CL        143.3520  132.7950  155.0292 Cl      1  UNL1       -0.0864
     23 C         142.7048  135.1765  154.2170 C.2     1  UNL1        0.0078
     24 C         142.4358  136.6219  154.5142 C.2     1  UNL1        0.0109
     25 C         142.5448  137.1312  155.9209 C.2     1  UNL1        0.1210
     26 C         142.2757  138.5767  156.2181 C.2     1  UNL1        0.3788
     27 O         141.8976  139.5128  155.1087 O.2     1  UNL1       -0.2376
     28 N         142.3847  139.0860  157.6248 N.am    1  UNL1        0.0364
@<TRIPOS>BOND
     1    13    14    1
     2    14     1    1
     3     1     2   ar
     4     2     3   ar
     5     3    15    1
     6    15    16    2
     7    16    17    1
     8    17    18    1
     9    18    19    2
    10    19    20    1
    11    20    21    1
    12    21    22    1
    13    21    23    2
    14    23    24    1
    15    24    25    2
    16    25    26    1
    17    26    27    2
    18    26    28    1
    19     3     4   ar
    20     4     5   ar
    21     5     6   ar
    22     6     7    1
    23     7     8   ar
    24     8     9   ar
    25     9    10   ar
    26    10    11    1
    27    10    12   ar
    28     6     1   ar
    29    12     7   ar
    30    28    17    2
    31    25    19    1
@<TRIPOS>MOLECULE
*****
 28 31 0 0 0
SMALL
GASTEIGER

@<TRIPOS>ATOM
      1 C         142.0226  140.1683  164.2880 C.ar    1  UNL1        0.1547
      2 C         142.2253  139.7934  162.8498 C.ar    1  UNL1        0.0384
      3 C         141.9452  138.3922  162.3933 C.ar    1  UNL1        0.0034
      4 C         141.4623  137.3660  163.3750 C.ar    1  UNL1        0.0017
      5 C         141.2596  137.7410  164.8132 C.ar    1  UNL1        0.0206
      6 C         141.5398  139.1421  165.2697 C.ar    1  UNL1        0.0994
      7 N         141.3371  139.5170  166.7078 N.ar    1  UNL1       -0.2839
      8 C         142.4016  139.5719  167.7632 C.ar    1  UNL1        0.1826
      9 N         141.7566  139.9917  169.0508 N.ar    1  UNL1       -0.2280
     10 C         140.2935  140.1962  168.7912 C.ar    1  UNL1        0.0786
     11 C         139.2695  140.6198  169.8021 C.3     1  UNL1        0.0538
     12 C         140.0341  139.9029  167.3432 C.ar    1  UNL1        0.0963
     13 C         143.6836  141.9514  165.1889 C.3     1  UNL1        0.2525
     14 O         142.3028  141.5694  164.7444 O.3     1  UNL1       -0.4700
     15 C         142.1479  138.0173  160.9552 C.2     1  UNL1        0.0079
     16 C         141.2028  138.5258  159.9072 C.2     1  UNL1        0.0937
     17 C         141.4055  138.1509  158.4690 C.2     1  UNL1        0.3691
     18 N         140.2204  137.9585  157.5699 N.2     1  UNL1       -0.0400
     19 C         140.4230  137.5836  156.1316 C.2     1  UNL1        0.1827
     20 C         139.2379  137.3913  155.2325 C.3     1  UNL1        0.1118
     21 C         139.4406  137.0164  153.7944 C.2     1  UNL1        0.0437
     22 CL        138.2555  136.8240  152.8952 Cl      1  UNL1       -0.0864
     23 C         140.8285  136.8339  153.2553 C.2     1  UNL1        0.0078
     24 C         142.0136  137.0262  154.1544 C.2     1  UNL1        0.0109
     25 C         141.8109  137.4011  155.5926 C.2     1  UNL1        0.1210
     26 C         142.9961  137.5935  156.4918 C.2     1  UNL1        0.3788
     27 O         144.3839  137.4110  155.9527 O.2     1  UNL1       -0.2376
     28 N         142.7933  137.9684  157.9299 N.am    1  UNL1        0.0364
@<TRIPOS>BOND
     1    13    14    1
     2    14     1    1
     3     1     2   ar
     4     2     3   ar
     5     3    15    1
     6    15    16    2
     7    16    17    1
     8    17    18    1
     9    18    19    2
    10    19    20    1
    11    20    21    1
    12    21    22    1
    13    21    23    2
    14    23    24    1
    15    24    25    2
    16    25    26    1
    17    26    27    2
    18    26    28    1
    19     3     4   ar
    20     4     5   ar
    21     5     6   ar
    22     6     7    1
    23     7     8   ar
    24     8     9   ar
    25     9    10   ar
    26    10    11    1
    27    10    12   ar
    28     6     1   ar
    29    12     7   ar
    30    28    17    2
    31    25    19    1
@<TRIPOS>MOLECULE
*****
 28 31 0 0 0
SMALL
GASTEIGER

@<TRIPOS>ATOM
      1 C         144.2326  140.3563  157.8920 C.ar    1  UNL1        0.1547
      2 C         143.6484  140.0691  159.2433 C.ar    1  UNL1        0.0384
      3 C         143.7275  141.1007  160.3294 C.ar    1  UNL1        0.0034
      4 C         144.3909  142.4197  160.0640 C.ar    1  UNL1        0.0017
      5 C         144.9751  142.7069  158.7126 C.ar    1  UNL1        0.0206
      6 C         144.8960  141.6752  157.6266 C.ar    1  UNL1        0.0994
      7 N         145.4802  141.9625  156.2753 N.ar    1  UNL1       -0.2839
      8 C         144.7209  142.4220  155.0660 C.ar    1  UNL1        0.1826
      9 N         145.6978  142.5842  153.9393 N.ar    1  UNL1       -0.2280
     10 C         147.0608  142.2248  154.4522 C.ar    1  UNL1        0.0786
     11 C         148.3346  142.2459  153.6604 C.3     1  UNL1        0.0538
     12 C         146.9264  141.8406  155.8959 C.ar    1  UNL1        0.0963
     13 C         142.8902  139.1659  156.0130 C.3     1  UNL1        0.2525
     14 O         144.1535  139.3246  156.8060 O.3     1  UNL1       -0.4700
     15 C         143.1433  140.8135  161.6807 C.2     1  UNL1        0.0079
     16 C         143.0485  141.9058  162.7043 C.2     1  UNL1        0.0937
     17 C         142.4643  141.6186  164.0558 C.2     1  UNL1        0.3691
     18 N         141.2217  140.7869  164.1743 N.2     1  UNL1       -0.0400
     19 C         140.6374  140.4997  165.5257 C.2     1  UNL1        0.1827
     20 C         139.3948  139.6680  165.6442 C.3     1  UNL1        0.1118
     21 C         138.8106  139.3808  166.9956 C.2     1  UNL1        0.0437
     22 CL        137.5679  138.5491  167.1142 Cl      1  UNL1       -0.0864
     23 C         139.4691  139.9253  168.2284 C.2     1  UNL1        0.0078
     24 C         140.7117  140.7570  168.1099 C.2     1  UNL1        0.0109
     25 C         141.2959  141.0442  166.7586 C.2     1  UNL1        0.1210
     26 C         142.5386  141.8759  166.6400 C.2     1  UNL1        0.3788
     27 O         143.1971  142.4205  167.8728 O.2     1  UNL1       -0.2376
     28 N         143.1228  142.1631  165.2886 N.am    1  UNL1        0.0364
@<TRIPOS>BOND
     1    13    14    1
     2    14     1    1
     3     1     2   ar
     4     2     3   ar
     5     3    15    1
     6    15    16    2
     7    16    17    1
     8    17    18    1
     9    18    19    2
    10    19    20    1
    11    20    21    1
    12    21    22    1
    13    21    23    2
    14    23    24    1
    15    24    25    2
    16    25    26    1
    17    26    27    2
    18    26    28    1
    19     3     4   ar
    20     4     5   ar
    21     5     6   ar
    22     6     7    1
    23     7     8   ar
    24     8     9   ar
    25     9    10   ar
    26    10    11    1
    27    10    12   ar
    28     6     1   ar
    29    12     7   ar
    30    28    17    2
    31    25    19    1
