@<TRIPOS>MOLECULE
*****
 27 30 0 0 0
SMALL
GASTEIGER

@<TRIPOS>ATOM
      1 N         137.5261  141.4499  163.5457 N.pl3   1  UNL1       -0.2150
      2 H         136.5860  141.1699  163.4625 H       1  UNL1        0.1737
      3 C         138.3050  141.1049  164.7803 C.ar    1  UNL1        0.0648
      4 C         139.3087  142.0749  165.3294 C.ar    1  UNL1        0.0155
      5 C         140.0876  141.7299  166.5641 C.ar    1  UNL1       -0.0029
      6 C         139.8626  140.4149  167.2497 C.ar    1  UNL1       -0.0214
      7 C         138.8588  139.4448  166.7006 C.ar    1  UNL1       -0.0029
      8 C         138.0800  139.7898  165.4660 C.ar    1  UNL1        0.0155
      9 C         140.6414  140.0698  168.4844 C.3     1  UNL1        0.0347
     10 C         141.9219  139.7418  167.7753 C.3     1  UNL1        0.0726
     11 N         142.9344  139.3433  168.8079 N.3     1  UNL1       -0.2972
     12 C         142.2797  139.4250  170.1549 C.3     1  UNL1        0.0689
     13 C         140.8625  139.8740  169.9549 C.3     1  UNL1        0.0211
     14 C         139.5237  140.3257  169.4514 C.3     1  UNL1        0.0072
     15 H         143.7330  139.9768  168.7722 H       1  UNL1        0.1233
     16 S         138.1798  142.2215  162.4378 S.O2    1  UNL1        0.0736
     17 O         138.9180  140.9866  162.0133 O.2     1  UNL1       -0.1499
     18 O         137.4415  143.4563  162.8623 O.2     1  UNL1       -0.1499
     19 C         140.1406  144.5363  159.1141 C.ar    1  UNL1       -0.0224
     20 C         139.3226  143.3190  158.7992 C.ar    1  UNL1       -0.0029
     21 C         138.6690  142.5474  159.9071 C.ar    1  UNL1        0.0199
     22 C         138.8334  142.9931  161.3299 C.ar    1  UNL1        0.1251
     23 C         139.6514  144.2103  161.6448 C.ar    1  UNL1        0.0199
     24 C         140.3050  144.9819  160.5369 C.ar    1  UNL1       -0.0029
     25 C         140.0102  146.3337  157.2427 C.3     1  UNL1        0.0047
     26 C         140.7942  145.3078  158.0062 C.3     1  UNL1        0.0224
     27 C         142.2318  145.0536  157.6618 C.3     1  UNL1        0.0047
@<TRIPOS>BOND
     1    25    26    1
     2    26    27    1
     3    26    19    1
     4    19    20   ar
     5    20    21   ar
     6    21    22   ar
     7    22    16    1
     8    16    17    2
     9    16    18    2
    10    16     1    1
    11     1     3    1
    12     3     4   ar
    13     4     5   ar
    14     5     6   ar
    15     6     9    1
    16     9    10    1
    17    10    11    1
    18    11    12    1
    19    12    13    1
    20    13    14    1
    21     6     7   ar
    22     7     8   ar
    23    22    23   ar
    24    23    24   ar
    25    24    19   ar
    26     8     3   ar
    27    13     9    1
    28    14     9    1
    29     1     2    1
    30    11    15    1
@<TRIPOS>MOLECULE
*****
 27 30 0 0 0
SMALL
GASTEIGER

@<TRIPOS>ATOM
      1 N         137.5893  141.8386  163.6684 N.pl3   1  UNL1       -0.2150
      2 H         136.6191  141.6715  163.6682 H       1  UNL1        0.1737
      3 C         138.4291  141.3795  164.8233 C.ar    1  UNL1        0.0648
      4 C         139.4726  142.2895  165.4003 C.ar    1  UNL1        0.0155
      5 C         140.3125  141.8303  166.5553 C.ar    1  UNL1       -0.0029
      6 C         140.1088  140.4612  167.1331 C.ar    1  UNL1       -0.0214
      7 C         139.0654  139.5511  166.5561 C.ar    1  UNL1       -0.0029
      8 C         138.2255  140.0102  165.4011 C.ar    1  UNL1        0.0155
      9 C         140.9487  140.0020  168.2881 C.3     1  UNL1        0.0347
     10 C         139.8500  140.0471  169.3084 C.3     1  UNL1        0.0726
     11 N         140.4235  139.6174  170.6262 N.3     1  UNL1       -0.2972
     12 C         141.8765  139.3068  170.4203 C.3     1  UNL1        0.0689
     13 C         142.2010  139.5445  168.9753 C.3     1  UNL1        0.0211
     14 C         142.2227  139.8609  167.5092 C.3     1  UNL1        0.0072
     15 H         139.9361  138.7865  170.9614 H       1  UNL1        0.1233
     16 S         138.2277  142.5522  162.5137 S.O2    1  UNL1        0.0736
     17 O         137.5837  143.8347  162.9503 O.2     1  UNL1       -0.1499
     18 O         138.8717  141.2698  162.0771 O.2     1  UNL1       -0.1499
     19 C         140.1429  144.6931  159.0498 C.ar    1  UNL1       -0.0224
     20 C         139.3951  143.4134  158.8197 C.ar    1  UNL1       -0.0029
     21 C         138.7567  142.6997  159.9744 C.ar    1  UNL1        0.0199
     22 C         138.8661  143.2658  161.3591 C.ar    1  UNL1        0.1251
     23 C         139.6139  144.5456  161.5892 C.ar    1  UNL1        0.0199
     24 C         140.2523  145.2592  160.4345 C.ar    1  UNL1       -0.0029
     25 C         142.2325  145.1862  157.5869 C.3     1  UNL1        0.0047
     26 C         140.7813  145.4068  157.8952 C.3     1  UNL1        0.0224
     27 C         139.9684  146.3410  157.0488 C.3     1  UNL1        0.0047
@<TRIPOS>BOND
     1    25    26    1
     2    26    27    1
     3    26    19    1
     4    19    20   ar
     5    20    21   ar
     6    21    22   ar
     7    22    16    1
     8    16    17    2
     9    16    18    2
    10    16     1    1
    11     1     3    1
    12     3     4   ar
    13     4     5   ar
    14     5     6   ar
    15     6     9    1
    16     9    10    1
    17    10    11    1
    18    11    12    1
    19    12    13    1
    20    13    14    1
    21     6     7   ar
    22     7     8   ar
    23    22    23   ar
    24    23    24   ar
    25    24    19   ar
    26     8     3   ar
    27    13     9    1
    28    14     9    1
    29     1     2    1
    30    11    15    1
@<TRIPOS>MOLECULE
*****
 27 30 0 0 0
SMALL
GASTEIGER

@<TRIPOS>ATOM
      1 N         138.9520  137.6729  164.2104 N.pl3   1  UNL1       -0.2150
      2 H         138.2312  137.0046  164.2645 H       1  UNL1        0.1737
      3 C         139.2903  138.5097  165.4084 C.ar    1  UNL1        0.0648
      4 C         140.6465  139.1400  165.5243 C.ar    1  UNL1        0.0155
      5 C         140.9848  139.9769  166.7224 C.ar    1  UNL1       -0.0029
      6 C         139.9669  140.1835  167.8045 C.ar    1  UNL1       -0.0214
      7 C         138.6106  139.5532  167.6886 C.ar    1  UNL1       -0.0029
      8 C         138.2723  138.7164  166.4906 C.ar    1  UNL1        0.0155
      9 C         140.3051  141.0204  169.0025 C.3     1  UNL1        0.0347
     10 C         140.1833  139.9128  170.0068 C.3     1  UNL1        0.0726
     11 N         140.4814  140.4815  171.3624 N.3     1  UNL1       -0.2972
     12 C         140.7873  141.9405  171.1960 C.3     1  UNL1        0.0689
     13 C         140.6783  142.2735  169.7375 C.3     1  UNL1        0.0211
     14 C         140.4976  142.3027  168.2487 C.3     1  UNL1        0.0072
     15 H         141.2853  140.0035  171.7693 H       1  UNL1        0.1233
     16 S         139.7121  137.8543  162.9300 S.O2    1  UNL1        0.0736
     17 O         140.6704  136.7781  163.3465 O.2     1  UNL1       -0.1499
     18 O         138.7537  138.9304  162.5136 O.2     1  UNL1       -0.1499
     19 C         141.9922  138.3985  159.0888 C.ar    1  UNL1       -0.0224
     20 C         142.7124  137.9770  160.3353 C.ar    1  UNL1       -0.0029
     21 C         141.9524  137.7956  161.6157 C.ar    1  UNL1        0.0199
     22 C         140.4721  138.0357  161.6496 C.ar    1  UNL1        0.1251
     23 C         139.7519  138.4571  160.4032 C.ar    1  UNL1        0.0199
     24 C         140.5120  138.6385  159.1228 C.ar    1  UNL1       -0.0029
     25 C         143.4351  139.8838  157.5199 C.3     1  UNL1        0.0047
     26 C         142.7522  138.5798  157.8084 C.3     1  UNL1        0.0224
     27 C         142.8294  137.4573  156.8166 C.3     1  UNL1        0.0047
@<TRIPOS>BOND
     1    25    26    1
     2    26    27    1
     3    26    19    1
     4    19    20   ar
     5    20    21   ar
     6    21    22   ar
     7    22    16    1
     8    16    17    2
     9    16    18    2
    10    16     1    1
    11     1     3    1
    12     3     4   ar
    13     4     5   ar
    14     5     6   ar
    15     6     9    1
    16     9    10    1
    17    10    11    1
    18    11    12    1
    19    12    13    1
    20    13    14    1
    21     6     7   ar
    22     7     8   ar
    23    22    23   ar
    24    23    24   ar
    25    24    19   ar
    26     8     3   ar
    27    13     9    1
    28    14     9    1
    29     1     2    1
    30    11    15    1
@<TRIPOS>MOLECULE
*****
 27 30 0 0 0
SMALL
GASTEIGER

@<TRIPOS>ATOM
      1 N         137.6719  140.3475  164.2994 N.pl3   1  UNL1       -0.2150
      2 H         136.8807  139.8280  164.5701 H       1  UNL1        0.1737
      3 C         138.6614  140.7997  165.3321 C.ar    1  UNL1        0.0648
      4 C         138.9978  139.9074  166.4899 C.ar    1  UNL1        0.0155
      5 C         139.9873  140.3596  167.5227 C.ar    1  UNL1       -0.0029
      6 C         140.6403  141.7041  167.3975 C.ar    1  UNL1       -0.0214
      7 C         140.3039  142.5965  166.2397 C.ar    1  UNL1       -0.0029
      8 C         139.3145  142.1443  165.2070 C.ar    1  UNL1        0.0155
      9 C         141.6298  142.1564  168.4303 C.3     1  UNL1        0.0347
     10 C         140.6192  142.4405  169.5017 C.3     1  UNL1        0.0726
     11 N         141.3542  142.9324  170.7133 N.3     1  UNL1       -0.2972
     12 C         142.8189  142.9522  170.3906 C.3     1  UNL1        0.0689
     13 C         142.9892  142.4726  168.9796 C.3     1  UNL1        0.0211
     14 C         142.8471  141.9668  167.5746 C.3     1  UNL1        0.0072
     15 H         141.1817  142.3070  171.5004 H       1  UNL1        0.1233
     16 S         137.8880  140.6870  162.8544 S.O2    1  UNL1        0.0736
     17 O         136.8490  141.7645  162.9522 O.2     1  UNL1       -0.1499
     18 O         138.9269  139.6095  162.7567 O.2     1  UNL1       -0.1499
     19 C         138.5361  141.7053  158.5193 C.ar    1  UNL1       -0.0224
     20 C         138.6966  142.7633  159.5704 C.ar    1  UNL1       -0.0029
     21 C         138.4805  142.4239  161.0154 C.ar    1  UNL1        0.0199
     22 C         138.1040  141.0264  161.4094 C.ar    1  UNL1        0.1251
     23 C         137.9436  139.9684  160.3583 C.ar    1  UNL1        0.0199
     24 C         138.1596  140.3078  158.9133 C.ar    1  UNL1       -0.0029
     25 C         139.2886  143.3924  156.6925 C.3     1  UNL1        0.0047
     26 C         138.7522  142.0447  157.0743 C.3     1  UNL1        0.0224
     27 C         138.4319  141.0364  156.0110 C.3     1  UNL1        0.0047
@<TRIPOS>BOND
     1    25    26    1
     2    26    27    1
     3    26    19    1
     4    19    20   ar
     5    20    21   ar
     6    21    22   ar
     7    22    16    1
     8    16    17    2
     9    16    18    2
    10    16     1    1
    11     1     3    1
    12     3     4   ar
    13     4     5   ar
    14     5     6   ar
    15     6     9    1
    16     9    10    1
    17    10    11    1
    18    11    12    1
    19    12    13    1
    20    13    14    1
    21     6     7   ar
    22     7     8   ar
    23    22    23   ar
    24    23    24   ar
    25    24    19   ar
    26     8     3   ar
    27    13     9    1
    28    14     9    1
    29     1     2    1
    30    11    15    1
@<TRIPOS>MOLECULE
*****
 27 30 0 0 0
SMALL
GASTEIGER

@<TRIPOS>ATOM
      1 N         138.9495  137.5891  164.2287 N.pl3   1  UNL1       -0.2150
      2 H         138.5872  136.6841  164.3665 H       1  UNL1        0.1737
      3 C         139.2897  138.4487  165.4100 C.ar    1  UNL1        0.0648
      4 C         138.2797  138.6615  166.4983 C.ar    1  UNL1        0.0155
      5 C         138.6199  139.5211  167.6796 C.ar    1  UNL1       -0.0029
      6 C         139.9701  140.1678  167.7725 C.ar    1  UNL1       -0.0214
      7 C         140.9801  139.9550  166.6842 C.ar    1  UNL1       -0.0029
      8 C         140.6400  139.0954  165.5029 C.ar    1  UNL1        0.0155
      9 C         140.3103  141.0275  168.9538 C.3     1  UNL1        0.0347
     10 C         140.1681  139.9444  169.9819 C.3     1  UNL1        0.0726
     11 N         140.4637  140.5401  171.3265 N.3     1  UNL1       -0.2972
     12 C         140.7886  141.9911  171.1294 C.3     1  UNL1        0.0689
     13 C         140.6938  142.2923  169.6630 C.3     1  UNL1        0.0211
     14 C         140.5236  142.2901  168.1727 C.3     1  UNL1        0.0072
     15 H         141.2590  140.0617  171.7497 H       1  UNL1        0.1233
     16 S         139.1614  138.1083  162.8375 S.O2    1  UNL1        0.0736
     17 O         140.2972  137.1464  162.6515 O.2     1  UNL1       -0.1499
     18 O         138.0256  139.0703  163.0236 O.2     1  UNL1       -0.1499
     19 C         139.7970  139.6661  158.6638 C.ar    1  UNL1       -0.0224
     20 C         138.4800  139.8762  159.3504 C.ar    1  UNL1       -0.0029
     21 C         138.2681  139.3570  160.7416 C.ar    1  UNL1        0.0199
     22 C         139.3732  138.6276  161.4463 C.ar    1  UNL1        0.1251
     23 C         140.6902  138.4174  160.7598 C.ar    1  UNL1        0.0199
     24 C         140.9021  138.9367  159.3685 C.ar    1  UNL1       -0.0029
     25 C         141.4007  140.3795  156.7484 C.3     1  UNL1        0.0047
     26 C         140.0088  140.1853  157.2726 C.3     1  UNL1        0.0224
     27 C         138.8288  140.5103  156.4056 C.3     1  UNL1        0.0047
@<TRIPOS>BOND
     1    25    26    1
     2    26    27    1
     3    26    19    1
     4    19    20   ar
     5    20    21   ar
     6    21    22   ar
     7    22    16    1
     8    16    17    2
     9    16    18    2
    10    16     1    1
    11     1     3    1
    12     3     4   ar
    13     4     5   ar
    14     5     6   ar
    15     6     9    1
    16     9    10    1
    17    10    11    1
    18    11    12    1
    19    12    13    1
    20    13    14    1
    21     6     7   ar
    22     7     8   ar
    23    22    23   ar
    24    23    24   ar
    25    24    19   ar
    26     8     3   ar
    27    13     9    1
    28    14     9    1
    29     1     2    1
    30    11    15    1
@<TRIPOS>MOLECULE
*****
 27 30 0 0 0
SMALL
GASTEIGER

@<TRIPOS>ATOM
      1 N         138.6306  138.3646  164.4367 N.pl3   1  UNL1       -0.2150
      2 H         138.2807  137.4847  164.7061 H       1  UNL1        0.1737
      3 C         138.6840  138.7381  162.9849 C.ar    1  UNL1        0.0648
      4 C         139.4635  137.8932  162.0214 C.ar    1  UNL1        0.0155
      5 C         139.5169  138.2667  160.5695 C.ar    1  UNL1       -0.0029
      6 C         138.7908  139.4851  160.0814 C.ar    1  UNL1       -0.0214
      7 C         138.0113  140.3300  161.0450 C.ar    1  UNL1       -0.0029
      8 C         137.9579  139.9565  162.4967 C.ar    1  UNL1        0.0155
      9 C         138.8442  139.8586  158.6296 C.3     1  UNL1        0.0347
     10 C         138.0598  141.1299  158.7659 C.3     1  UNL1        0.0726
     11 N         137.9468  141.7528  157.4060 N.3     1  UNL1       -0.2972
     12 C         138.6615  140.8666  156.4294 C.3     1  UNL1        0.0689
     13 C         139.2161  139.6959  157.1856 C.3     1  UNL1        0.0211
     14 C         139.6398  138.6655  158.1899 C.3     1  UNL1        0.0072
     15 H         138.3763  142.6780  157.4123 H       1  UNL1        0.1233
     16 S         139.1103  139.3318  165.4781 S.O2    1  UNL1        0.0736
     17 O         137.7360  139.3674  166.0781 O.2     1  UNL1       -0.1499
     18 O         140.4846  139.2962  164.8780 O.2     1  UNL1       -0.1499
     19 C         140.5495  142.2333  168.6022 C.ar    1  UNL1       -0.0224
     20 C         140.6216  142.5987  167.1493 C.ar    1  UNL1       -0.0029
     21 C         140.1419  141.6316  166.1079 C.ar    1  UNL1        0.0199
     22 C         139.5900  140.2989  166.5195 C.ar    1  UNL1        0.1251
     23 C         139.5179  139.9335  167.9724 C.ar    1  UNL1        0.0199
     24 C         139.9976  140.9006  169.0138 C.ar    1  UNL1       -0.0029
     25 C         140.1768  144.3736  170.0270 C.3     1  UNL1        0.0047
     26 C         141.0292  143.2004  169.6436 C.3     1  UNL1        0.0224
     27 C         142.3613  142.9944  170.3016 C.3     1  UNL1        0.0047
@<TRIPOS>BOND
     1    25    26    1
     2    26    27    1
     3    26    19    1
     4    19    20   ar
     5    20    21   ar
     6    21    22   ar
     7    22    16    1
     8    16    17    2
     9    16    18    2
    10    16     1    1
    11     1     3    1
    12     3     4   ar
    13     4     5   ar
    14     5     6   ar
    15     6     9    1
    16     9    10    1
    17    10    11    1
    18    11    12    1
    19    12    13    1
    20    13    14    1
    21     6     7   ar
    22     7     8   ar
    23    22    23   ar
    24    23    24   ar
    25    24    19   ar
    26     8     3   ar
    27    13     9    1
    28    14     9    1
    29     1     2    1
    30    11    15    1
@<TRIPOS>MOLECULE
*****
 27 30 0 0 0
SMALL
GASTEIGER

@<TRIPOS>ATOM
      1 N         139.5969  138.0536  164.8080 N.pl3   1  UNL1       -0.2150
      2 H         138.9172  137.3881  165.0617 H       1  UNL1        0.1737
      3 C         140.1233  139.0156  165.8315 C.ar    1  UNL1        0.0648
      4 C         139.2080  139.5645  166.8855 C.ar    1  UNL1        0.0155
      5 C         139.7345  140.5265  167.9090 C.ar    1  UNL1       -0.0029
      6 C         141.1762  140.9395  167.8784 C.ar    1  UNL1       -0.0214
      7 C         142.0914  140.3906  166.8244 C.ar    1  UNL1       -0.0029
      8 C         141.5650  139.4286  165.8009 C.ar    1  UNL1        0.0155
      9 C         141.7026  141.9015  168.9019 C.3     1  UNL1        0.0347
     10 C         142.9666  141.1470  169.1905 C.3     1  UNL1        0.0726
     11 N         143.7343  141.9093  170.2296 N.3     1  UNL1       -0.2972
     12 C         142.9448  143.1347  170.5832 C.3     1  UNL1        0.0689
     13 C         141.6892  143.1298  169.7626 C.3     1  UNL1        0.0211
     14 C         140.5488  142.8569  168.8272 C.3     1  UNL1        0.0072
     15 H         144.6451  142.1795  169.8582 H       1  UNL1        0.1233
     16 S         140.1061  138.1056  163.3980 S.O2    1  UNL1        0.0736
     17 O         139.2799  139.3317  163.1449 O.2     1  UNL1       -0.1499
     18 O         140.9323  136.8795  163.6511 O.2     1  UNL1       -0.1499
     19 C         141.6336  138.2617  159.1681 C.ar    1  UNL1       -0.0224
     20 C         140.1849  138.5265  159.4526 C.ar    1  UNL1       -0.0029
     21 C         139.6757  138.4745  160.8625 C.ar    1  UNL1        0.0199
     22 C         140.6153  138.1577  161.9880 C.ar    1  UNL1        0.1251
     23 C         142.0640  137.8928  161.7036 C.ar    1  UNL1        0.0199
     24 C         142.5732  137.9449  160.2936 C.ar    1  UNL1       -0.0029
     25 C         142.3156  139.6360  157.0714 C.3     1  UNL1        0.0047
     26 C         142.1428  138.3137  157.7581 C.3     1  UNL1        0.0224
     27 C         142.4791  137.0434  157.0348 C.3     1  UNL1        0.0047
@<TRIPOS>BOND
     1    25    26    1
     2    26    27    1
     3    26    19    1
     4    19    20   ar
     5    20    21   ar
     6    21    22   ar
     7    22    16    1
     8    16    17    2
     9    16    18    2
    10    16     1    1
    11     1     3    1
    12     3     4   ar
    13     4     5   ar
    14     5     6   ar
    15     6     9    1
    16     9    10    1
    17    10    11    1
    18    11    12    1
    19    12    13    1
    20    13    14    1
    21     6     7   ar
    22     7     8   ar
    23    22    23   ar
    24    23    24   ar
    25    24    19   ar
    26     8     3   ar
    27    13     9    1
    28    14     9    1
    29     1     2    1
    30    11    15    1
@<TRIPOS>MOLECULE
*****
 27 30 0 0 0
SMALL
GASTEIGER

@<TRIPOS>ATOM
      1 N         144.7909  140.2570  162.2417 N.pl3   1  UNL1       -0.2150
      2 H         145.6598  140.6870  162.0703 H       1  UNL1        0.1737
      3 C         144.0293  139.6287  161.1125 C.ar    1  UNL1        0.0648
      4 C         143.6511  138.1787  161.1781 C.ar    1  UNL1        0.0155
      5 C         142.8894  137.5504  160.0488 C.ar    1  UNL1       -0.0029
      6 C         142.5061  138.3722  158.8539 C.ar    1  UNL1       -0.0214
      7 C         142.8843  139.8222  158.7883 C.ar    1  UNL1       -0.0029
      8 C         143.6459  140.4505  159.9176 C.ar    1  UNL1        0.0155
      9 C         141.7444  137.7439  157.7246 C.3     1  UNL1        0.0347
     10 C         140.4449  138.4378  158.0070 C.3     1  UNL1        0.0726
     11 N         139.4448  137.9820  156.9860 N.3     1  UNL1       -0.2972
     12 C         140.1264  137.0066  156.0728 C.3     1  UNL1        0.0689
     13 C         141.5476  136.8595  156.5293 C.3     1  UNL1        0.0211
     14 C         142.8848  136.9189  157.2063 C.3     1  UNL1        0.0072
     15 H         139.1088  138.7818  156.4495 H       1  UNL1        0.1233
     16 S         144.2287  140.2301  163.6321 S.O2    1  UNL1        0.0736
     17 O         143.2271  141.2783  163.2474 O.2     1  UNL1       -0.1499
     18 O         145.2303  139.1818  164.0168 O.2     1  UNL1       -0.1499
     19 C         142.5421  140.1493  167.8033 C.ar    1  UNL1       -0.0224
     20 C         143.0086  138.8781  167.1582 C.ar    1  UNL1       -0.0029
     21 C         143.5709  138.9050  165.7678 C.ar    1  UNL1        0.0199
     22 C         143.6665  140.2032  165.0225 C.ar    1  UNL1        0.1251
     23 C         143.1999  141.4744  165.6676 C.ar    1  UNL1        0.0199
     24 C         142.6377  141.4475  167.0580 C.ar    1  UNL1       -0.0029
     25 C         140.4950  140.1563  169.4031 C.3     1  UNL1        0.0047
     26 C         141.9799  140.1224  169.1937 C.3     1  UNL1        0.0224
     27 C         142.9026  140.0617  170.3747 C.3     1  UNL1        0.0047
@<TRIPOS>BOND
     1    25    26    1
     2    26    27    1
     3    26    19    1
     4    19    20   ar
     5    20    21   ar
     6    21    22   ar
     7    22    16    1
     8    16    17    2
     9    16    18    2
    10    16     1    1
    11     1     3    1
    12     3     4   ar
    13     4     5   ar
    14     5     6   ar
    15     6     9    1
    16     9    10    1
    17    10    11    1
    18    11    12    1
    19    12    13    1
    20    13    14    1
    21     6     7   ar
    22     7     8   ar
    23    22    23   ar
    24    23    24   ar
    25    24    19   ar
    26     8     3   ar
    27    13     9    1
    28    14     9    1
    29     1     2    1
    30    11    15    1
@<TRIPOS>MOLECULE
*****
 27 30 0 0 0
SMALL
GASTEIGER

@<TRIPOS>ATOM
      1 N         137.2977  140.3942  163.8342 N.pl3   1  UNL1       -0.2150
      2 H         136.3185  140.4392  163.9259 H       1  UNL1        0.1737
      3 C         138.1687  140.4545  165.0539 C.ar    1  UNL1        0.0648
      4 C         138.0541  139.3958  166.1104 C.ar    1  UNL1        0.0155
      5 C         138.9252  139.4560  167.3301 C.ar    1  UNL1       -0.0029
      6 C         139.9107  140.5749  167.4934 C.ar    1  UNL1       -0.0214
      7 C         140.0253  141.6336  166.4369 C.ar    1  UNL1       -0.0029
      8 C         139.1543  141.5734  165.2172 C.ar    1  UNL1        0.0155
      9 C         140.7818  140.6352  168.7131 C.3     1  UNL1        0.0347
     10 C         139.7011  140.2903  169.6946 C.3     1  UNL1        0.0726
     11 N         140.3082  140.2759  171.0662 N.3     1  UNL1       -0.2972
     12 C         141.7640  140.6117  170.9324 C.3     1  UNL1        0.0689
     13 C         142.0566  140.8338  169.4781 C.3     1  UNL1        0.0211
     14 C         142.0444  140.9926  167.9866 C.3     1  UNL1        0.0072
     15 H         140.2033  139.3501  171.4814 H       1  UNL1        0.1233
     16 S         137.9186  140.2656  162.4748 S.O2    1  UNL1        0.0736
     17 O         138.4587  138.9172  162.8492 O.2     1  UNL1       -0.1499
     18 O         137.3785  141.6140  162.1005 O.2     1  UNL1       -0.1499
     19 C         139.7813  139.8796  158.3967 C.ar    1  UNL1       -0.0224
     20 C         139.6452  138.6723  159.2764 C.ar    1  UNL1       -0.0029
     21 C         139.0243  138.8009  160.6358 C.ar    1  UNL1        0.0199
     22 C         138.5395  140.1369  161.1154 C.ar    1  UNL1        0.1251
     23 C         138.6756  141.3442  160.2357 C.ar    1  UNL1        0.0199
     24 C         139.2965  141.2155  158.8764 C.ar    1  UNL1       -0.0029
     25 C         140.7341  140.9805  156.2449 C.3     1  UNL1        0.0047
     26 C         140.4022  139.7509  157.0373 C.3     1  UNL1        0.0224
     27 C         140.6911  138.3926  156.4702 C.3     1  UNL1        0.0047
@<TRIPOS>BOND
     1    25    26    1
     2    26    27    1
     3    26    19    1
     4    19    20   ar
     5    20    21   ar
     6    21    22   ar
     7    22    16    1
     8    16    17    2
     9    16    18    2
    10    16     1    1
    11     1     3    1
    12     3     4   ar
    13     4     5   ar
    14     5     6   ar
    15     6     9    1
    16     9    10    1
    17    10    11    1
    18    11    12    1
    19    12    13    1
    20    13    14    1
    21     6     7   ar
    22     7     8   ar
    23    22    23   ar
    24    23    24   ar
    25    24    19   ar
    26     8     3   ar
    27    13     9    1
    28    14     9    1
    29     1     2    1
    30    11    15    1
