@<TRIPOS>MOLECULE
*****
 38 43 0 0 0
SMALL
GASTEIGER

@<TRIPOS>ATOM
      1 C         137.8436  142.8397  163.4602 C.3     1  UNL1        0.0932
      2 C         137.6795  141.5967  164.2838 C.3     1  UNL1        0.0286
      3 C         137.6871  140.2513  163.6208 C.3     1  UNL1        0.0193
      4 C         137.8588  140.1487  162.1342 C.3     1  UNL1        0.0700
      5 C         138.0228  141.3915  161.3106 C.3     1  UNL1        0.0193
      6 C         138.0152  142.7371  161.9736 C.3     1  UNL1        0.0286
      7 C         137.8611  140.9080  162.4526 C.3     1  UNL1        0.1562
      8 O         137.8543  142.1246  163.0521 O.3     1  UNL1       -0.3572
      9 N         137.8664  138.8032  161.4712 N.3     1  UNL1       -0.2926
     10 H         137.3218  138.8945  160.6135 H       1  UNL1        0.1236
     11 C         139.1680  138.1615  161.0914 C.3     1  UNL1        0.1152
     12 C         140.3679  138.3178  161.9778 C.ar    1  UNL1        0.0765
     13 C         140.5151  137.4596  163.1992 C.ar    1  UNL1        0.0193
     14 C         141.7150  137.6158  164.0855 C.ar    1  UNL1        0.0411
     15 C         142.7679  138.6303  163.7504 C.ar    1  UNL1        0.1708
     16 C         142.6208  139.4885  162.5290 C.ar    1  UNL1        0.1682
     17 N         141.4208  139.3322  161.6427 N.ar    1  UNL1       -0.2304
     18 N         143.6737  140.5030  162.1940 N.am    1  UNL1       -0.2639
     19 C         144.8737  140.6593  163.0803 C.2     1  UNL1        0.2718
     20 O         145.9266  141.6738  162.7452 O.2     1  UNL1       -0.2707
     21 C         145.0208  139.8011  164.3017 C.3     1  UNL1        0.2898
     22 O         143.9679  138.7866  164.6368 O.3     1  UNL1       -0.4628
     23 H         143.5771  141.0663  161.3923 H       1  UNL1        0.1565
     24 C         137.8360  144.1851  164.1233 C.3     1  UNL1        0.0319
     25 C         138.8546  144.5083  165.1758 C.3     1  UNL1        0.0304
     26 C         139.6575  140.5807  168.8061 C.3     1  UNL1        0.0528
     27 C         140.5241  141.2313  167.7690 C.ar    1  UNL1        0.0690
     28 N         139.9676  142.3237  166.9046 N.ar    1  UNL1       -0.2478
     29 C         140.8342  142.9743  165.8674 C.ar    1  UNL1        0.0946
     30 C         140.2777  144.0666  165.0030 C.ar    1  UNL1       -0.0015
     31 C         141.1443  144.7173  163.9659 C.ar    1  UNL1        0.0179
     32 C         142.5673  144.2756  163.7931 C.ar    1  UNL1        0.0986
     33 N         143.1238  143.1833  164.6575 N.ar    1  UNL1       -0.2423
     34 C         142.2572  142.5326  165.6946 C.ar    1  UNL1        0.0993
     35 C         142.8137  141.4403  166.5590 C.ar    1  UNL1        0.0321
     36 C         141.9472  140.7897  167.5962 C.ar    1  UNL1        0.0835
     37 C         142.5036  139.6973  168.4606 C.1     1  UNL1        0.1017
     38 N         143.0601  138.6050  169.3249 N.1     1  UNL1       -0.1908
@<TRIPOS>BOND
     1    26    27    1
     2    27    28   ar
     3    28    29   ar
     4    29    30   ar
     5    30    25    1
     6    25    24    1
     7    24     1    1
     8     1     2    1
     9     2     3    1
    10     3     4    1
    11     4     9    1
    12     9    11    1
    13    11    12    1
    14    12    13   ar
    15    13    14   ar
    16    14    15   ar
    17    15    16   ar
    18    16    17   ar
    19    16    18    1
    20    18    19   am
    21    19    20    2
    22    19    21    1
    23    21    22    1
    24     4     5    1
    25     5     6    1
    26     4     7    1
    27     7     8    1
    28    30    31   ar
    29    31    32   ar
    30    32    33   ar
    31    33    34   ar
    32    34    35   ar
    33    35    36   ar
    34    36    37    1
    35    37    38    3
    36    36    27   ar
    37    34    29   ar
    38     6     1    1
    39     8     1    1
    40    17    12   ar
    41    22    15    1
    42     9    10    1
    43    18    23    1
@<TRIPOS>MOLECULE
*****
 38 43 0 0 0
SMALL
GASTEIGER

@<TRIPOS>ATOM
      1 C         141.8653  138.0271  164.2458 C.3     1  UNL1        0.0932
      2 C         142.8435  138.4333  165.3079 C.3     1  UNL1        0.0286
      3 C         144.0747  139.2059  164.9377 C.3     1  UNL1        0.0193
      4 C         144.3278  139.5723  163.5053 C.3     1  UNL1        0.0700
      5 C         143.3496  139.1662  162.4432 C.3     1  UNL1        0.0193
      6 C         142.1183  138.3935  162.8134 C.3     1  UNL1        0.0286
      7 C         143.6391  139.1482  163.6597 C.3     1  UNL1        0.1562
      8 O         142.5258  138.4496  163.9945 O.3     1  UNL1       -0.3572
      9 N         145.5590  140.3449  163.1351 N.3     1  UNL1       -0.2926
     10 H         145.6848  140.2340  162.1290 H       1  UNL1        0.1236
     11 C         145.6362  141.8153  163.4216 C.3     1  UNL1        0.1152
     12 C         144.4149  142.6734  163.2735 C.ar    1  UNL1        0.0765
     13 C         143.6676  143.1311  164.4909 C.ar    1  UNL1        0.0193
     14 C         142.4463  143.9892  164.3428 C.ar    1  UNL1        0.0411
     15 C         141.9722  144.3897  162.9771 C.ar    1  UNL1        0.1708
     16 C         142.7195  143.9321  161.7597 C.ar    1  UNL1        0.1682
     17 N         143.9408  143.0739  161.9079 N.ar    1  UNL1       -0.2304
     18 N         142.2454  144.3325  160.3941 N.am    1  UNL1       -0.2639
     19 C         141.0240  145.1907  160.2459 C.2     1  UNL1        0.2718
     20 O         140.5500  145.5912  158.8803 O.2     1  UNL1       -0.2707
     21 C         140.2768  145.6483  161.4634 C.3     1  UNL1        0.2898
     22 O         140.7509  145.2478  162.8290 O.3     1  UNL1       -0.4628
     23 H         142.7359  144.0322  159.5951 H       1  UNL1        0.1565
     24 C         140.6340  137.2545  164.6160 C.3     1  UNL1        0.0319
     25 C         139.3519  137.9786  164.9020 C.3     1  UNL1        0.0304
     26 C         140.9879  140.1192  169.5915 C.3     1  UNL1        0.0528
     27 C         140.5222  140.7000  168.2893 C.ar    1  UNL1        0.0690
     28 N         140.1321  139.7929  167.1602 N.ar    1  UNL1       -0.2478
     29 C         139.6664  140.3738  165.8580 C.ar    1  UNL1        0.0946
     30 C         139.2763  139.4667  164.7289 C.ar    1  UNL1       -0.0015
     31 C         138.8106  140.0476  163.4267 C.ar    1  UNL1        0.0179
     32 C         138.7350  141.5356  163.2537 C.ar    1  UNL1        0.0986
     33 N         139.1252  142.4428  164.3828 N.ar    1  UNL1       -0.2423
     34 C         139.5908  141.8619  165.6849 C.ar    1  UNL1        0.0993
     35 C         139.9810  142.7690  166.8140 C.ar    1  UNL1        0.0321
     36 C         140.4467  142.1882  168.1162 C.ar    1  UNL1        0.0835
     37 C         140.8368  143.0953  169.2453 C.1     1  UNL1        0.1017
     38 N         141.2269  144.0025  170.3744 N.1     1  UNL1       -0.1908
@<TRIPOS>BOND
     1    26    27    1
     2    27    28   ar
     3    28    29   ar
     4    29    30   ar
     5    30    25    1
     6    25    24    1
     7    24     1    1
     8     1     2    1
     9     2     3    1
    10     3     4    1
    11     4     9    1
    12     9    11    1
    13    11    12    1
    14    12    13   ar
    15    13    14   ar
    16    14    15   ar
    17    15    16   ar
    18    16    17   ar
    19    16    18    1
    20    18    19   am
    21    19    20    2
    22    19    21    1
    23    21    22    1
    24     4     5    1
    25     5     6    1
    26     4     7    1
    27     7     8    1
    28    30    31   ar
    29    31    32   ar
    30    32    33   ar
    31    33    34   ar
    32    34    35   ar
    33    35    36   ar
    34    36    37    1
    35    37    38    3
    36    36    27   ar
    37    34    29   ar
    38     6     1    1
    39     8     1    1
    40    17    12   ar
    41    22    15    1
    42     9    10    1
    43    18    23    1
@<TRIPOS>MOLECULE
*****
 38 43 0 0 0
SMALL
GASTEIGER

@<TRIPOS>ATOM
      1 C         139.4245  137.7618  164.5662 C.3     1  UNL1        0.0932
      2 C         140.8683  137.4830  164.8628 C.3     1  UNL1        0.0286
      3 C         141.8655  137.4221  163.7440 C.3     1  UNL1        0.0193
      4 C         141.4191  137.6401  162.3286 C.3     1  UNL1        0.0700
      5 C         139.9755  137.9189  162.0321 C.3     1  UNL1        0.0193
      6 C         138.9781  137.9798  163.1509 C.3     1  UNL1        0.0286
      7 C         140.8360  137.6831  162.9084 C.3     1  UNL1        0.1562
      8 O         139.9342  137.7381  163.9200 O.3     1  UNL1       -0.3572
      9 N         142.4164  137.5792  161.2099 N.3     1  UNL1       -0.2926
     10 H         141.9130  137.8116  160.3537 H       1  UNL1        0.1236
     11 C         143.6369  138.4506  161.2448 C.3     1  UNL1        0.1152
     12 C         143.5179  139.8924  161.6411 C.ar    1  UNL1        0.0765
     13 C         142.7331  140.8429  160.7863 C.ar    1  UNL1        0.0193
     14 C         142.6141  142.2846  161.1826 C.ar    1  UNL1        0.0411
     15 C         143.2800  142.7760  162.4338 C.ar    1  UNL1        0.1708
     16 C         144.0648  141.8255  163.2886 C.ar    1  UNL1        0.1682
     17 N         144.1837  140.3836  162.8922 N.ar    1  UNL1       -0.2304
     18 N         144.7306  142.3168  164.5396 N.am    1  UNL1       -0.2639
     19 C         144.6117  143.7586  164.9360 C.2     1  UNL1        0.2718
     20 O         145.2775  144.2499  166.1871 O.2     1  UNL1       -0.2707
     21 C         143.8269  144.7091  164.0812 C.3     1  UNL1        0.2898
     22 O         143.1610  144.2177  162.8301 O.3     1  UNL1       -0.4628
     23 H         145.2457  141.6929  165.1007 H       1  UNL1        0.1565
     24 C         138.4272  137.8227  165.6850 C.3     1  UNL1        0.0319
     25 C         138.0352  139.1476  166.2690 C.3     1  UNL1        0.0304
     26 C         137.7464  142.8719  162.3580 C.3     1  UNL1        0.0528
     27 C         138.6079  142.7059  163.5745 C.ar    1  UNL1        0.0690
     28 N         138.4170  141.5198  164.4727 N.ar    1  UNL1       -0.2478
     29 C         139.2787  141.3539  165.6893 C.ar    1  UNL1        0.0946
     30 C         139.0878  140.1678  166.5875 C.ar    1  UNL1       -0.0015
     31 C         139.9494  140.0018  167.8040 C.ar    1  UNL1        0.0179
     32 C         141.0019  141.0220  168.1224 C.ar    1  UNL1        0.0986
     33 N         141.1928  142.2081  167.2243 N.ar    1  UNL1       -0.2423
     34 C         140.3312  142.3741  166.0077 C.ar    1  UNL1        0.0993
     35 C         140.5221  143.5602  165.1096 C.ar    1  UNL1        0.0321
     36 C         139.6605  143.7261  163.8930 C.ar    1  UNL1        0.0835
     37 C         139.8514  144.9122  162.9949 C.1     1  UNL1        0.1017
     38 N         140.0423  146.0984  162.0967 N.1     1  UNL1       -0.1908
@<TRIPOS>BOND
     1    26    27    1
     2    27    28   ar
     3    28    29   ar
     4    29    30   ar
     5    30    25    1
     6    25    24    1
     7    24     1    1
     8     1     2    1
     9     2     3    1
    10     3     4    1
    11     4     9    1
    12     9    11    1
    13    11    12    1
    14    12    13   ar
    15    13    14   ar
    16    14    15   ar
    17    15    16   ar
    18    16    17   ar
    19    16    18    1
    20    18    19   am
    21    19    20    2
    22    19    21    1
    23    21    22    1
    24     4     5    1
    25     5     6    1
    26     4     7    1
    27     7     8    1
    28    30    31   ar
    29    31    32   ar
    30    32    33   ar
    31    33    34   ar
    32    34    35   ar
    33    35    36   ar
    34    36    37    1
    35    37    38    3
    36    36    27   ar
    37    34    29   ar
    38     6     1    1
    39     8     1    1
    40    17    12   ar
    41    22    15    1
    42     9    10    1
    43    18    23    1
@<TRIPOS>MOLECULE
*****
 38 43 0 0 0
SMALL
GASTEIGER

@<TRIPOS>ATOM
      1 C         139.6554  137.6596  164.4967 C.3     1  UNL1        0.0932
      2 C         139.3779  137.7352  163.0245 C.3     1  UNL1        0.0286
      3 C         140.5157  137.7809  162.0482 C.3     1  UNL1        0.0193
      4 C         141.9311  137.7511  162.5441 C.3     1  UNL1        0.0700
      5 C         142.2086  137.6755  164.0162 C.3     1  UNL1        0.0193
      6 C         141.0708  137.6298  164.9926 C.3     1  UNL1        0.0286
      7 C         141.3406  137.7240  163.1172 C.3     1  UNL1        0.1562
      8 O         140.3117  137.6826  164.0000 O.3     1  UNL1       -0.3572
      9 N         143.0689  137.7968  161.5678 N.3     1  UNL1       -0.2926
     10 H         142.8206  137.1767  160.7969 H       1  UNL1        0.1236
     11 C         143.4810  139.1034  160.9569 C.3     1  UNL1        0.1152
     12 C         143.3939  140.3674  161.7599 C.ar    1  UNL1        0.0765
     13 C         144.2827  140.5609  162.9526 C.ar    1  UNL1        0.0193
     14 C         144.1956  141.8248  163.7556 C.ar    1  UNL1        0.0411
     15 C         143.2197  142.8953  163.3659 C.ar    1  UNL1        0.1708
     16 C         142.3309  142.7018  162.1732 C.ar    1  UNL1        0.1682
     17 N         142.4181  141.4377  161.3702 N.ar    1  UNL1       -0.2304
     18 N         141.3551  143.7721  161.7834 N.am    1  UNL1       -0.2639
     19 C         141.2679  145.0361  162.5864 C.2     1  UNL1        0.2718
     20 O         140.2921  146.1065  162.1967 O.2     1  UNL1       -0.2707
     21 C         142.1567  145.2297  163.7792 C.3     1  UNL1        0.2898
     22 O         143.1326  144.1592  164.1689 O.3     1  UNL1       -0.4628
     23 H         140.7717  143.6451  161.0006 H       1  UNL1        0.1565
     24 C         138.5176  137.6139  165.4730 C.3     1  UNL1        0.0319
     25 C         138.0385  138.8764  166.1262 C.3     1  UNL1        0.0304
     26 C         142.0120  139.6124  169.7206 C.3     1  UNL1        0.0528
     27 C         141.4966  140.4128  168.5615 C.ar    1  UNL1        0.0690
     28 N         140.3439  139.9007  167.7497 N.ar    1  UNL1       -0.2478
     29 C         139.8286  140.7012  166.5905 C.ar    1  UNL1        0.0946
     30 C         138.6759  140.1891  165.7787 C.ar    1  UNL1       -0.0015
     31 C         138.1606  140.9895  164.6196 C.ar    1  UNL1        0.0179
     32 C         138.7980  142.3021  164.2722 C.ar    1  UNL1        0.0986
     33 N         139.9507  142.8143  165.0840 N.ar    1  UNL1       -0.2423
     34 C         140.4660  142.0138  166.2431 C.ar    1  UNL1        0.0993
     35 C         141.6187  142.5260  167.0549 C.ar    1  UNL1        0.0321
     36 C         142.1340  141.7255  168.2140 C.ar    1  UNL1        0.0835
     37 C         143.2868  142.2377  169.0258 C.1     1  UNL1        0.1017
     38 N         144.4395  142.7498  169.8376 N.1     1  UNL1       -0.1908
@<TRIPOS>BOND
     1    26    27    1
     2    27    28   ar
     3    28    29   ar
     4    29    30   ar
     5    30    25    1
     6    25    24    1
     7    24     1    1
     8     1     2    1
     9     2     3    1
    10     3     4    1
    11     4     9    1
    12     9    11    1
    13    11    12    1
    14    12    13   ar
    15    13    14   ar
    16    14    15   ar
    17    15    16   ar
    18    16    17   ar
    19    16    18    1
    20    18    19   am
    21    19    20    2
    22    19    21    1
    23    21    22    1
    24     4     5    1
    25     5     6    1
    26     4     7    1
    27     7     8    1
    28    30    31   ar
    29    31    32   ar
    30    32    33   ar
    31    33    34   ar
    32    34    35   ar
    33    35    36   ar
    34    36    37    1
    35    37    38    3
    36    36    27   ar
    37    34    29   ar
    38     6     1    1
    39     8     1    1
    40    17    12   ar
    41    22    15    1
    42     9    10    1
    43    18    23    1
@<TRIPOS>MOLECULE
*****
 38 43 0 0 0
SMALL
GASTEIGER

@<TRIPOS>ATOM
      1 C         141.5353  137.9591  164.3814 C.3     1  UNL1        0.0932
      2 C         140.1820  138.0068  165.0267 C.3     1  UNL1        0.0286
      3 C         138.9451  137.9669  164.1791 C.3     1  UNL1        0.0193
      4 C         139.0614  137.8793  162.6862 C.3     1  UNL1        0.0700
      5 C         140.4146  137.8316  162.0409 C.3     1  UNL1        0.0193
      6 C         141.6516  137.8715  162.8885 C.3     1  UNL1        0.0286
      7 C         139.7677  137.8985  163.1091 C.3     1  UNL1        0.1562
      8 O         140.8861  137.9346  163.8755 O.3     1  UNL1       -0.3572
      9 N         137.8245  137.8394  161.8386 N.3     1  UNL1       -0.2926
     10 H         137.0502  137.6019  162.4587 H       1  UNL1        0.1236
     11 C         137.4044  139.0553  161.0672 C.3     1  UNL1        0.1152
     12 C         137.8343  140.4182  161.5228 C.ar    1  UNL1        0.0765
     13 C         137.2879  140.9899  162.7974 C.ar    1  UNL1        0.0193
     14 C         137.7179  142.3528  163.2530 C.ar    1  UNL1        0.0411
     15 C         138.6943  143.1440  162.4340 C.ar    1  UNL1        0.1708
     16 C         139.2408  142.5722  161.1595 C.ar    1  UNL1        0.1682
     17 N         138.8108  141.2093  160.7039 N.ar    1  UNL1       -0.2304
     18 N         140.2172  143.3633  160.3405 N.am    1  UNL1       -0.2639
     19 C         140.6472  144.7263  160.7961 C.2     1  UNL1        0.2718
     20 O         141.6237  145.5174  159.9772 O.2     1  UNL1       -0.2707
     21 C         140.1008  145.2981  162.0707 C.3     1  UNL1        0.2898
     22 O         139.1243  144.5069  162.8896 O.3     1  UNL1       -0.4628
     23 H         140.5758  142.9881  159.5040 H       1  UNL1        0.1565
     24 C         142.7722  137.9991  165.2290 C.3     1  UNL1        0.0319
     25 C         143.5301  139.2835  165.3897 C.3     1  UNL1        0.0304
     26 C         141.3340  140.0382  170.2741 C.3     1  UNL1        0.0528
     27 C         141.3398  140.8334  169.0022 C.ar    1  UNL1        0.0690
     28 N         142.0699  140.3167  167.7981 N.ar    1  UNL1       -0.2478
     29 C         142.0757  141.1119  166.5262 C.ar    1  UNL1        0.0946
     30 C         142.8058  140.5953  165.3220 C.ar    1  UNL1       -0.0015
     31 C         142.8116  141.3904  164.0501 C.ar    1  UNL1        0.0179
     32 C         142.0873  142.7022  163.9824 C.ar    1  UNL1        0.0986
     33 N         141.3572  143.2188  165.1866 N.ar    1  UNL1       -0.2423
     34 C         141.3513  142.4237  166.4585 C.ar    1  UNL1        0.0993
     35 C         140.6212  142.9403  167.6626 C.ar    1  UNL1        0.0321
     36 C         140.6154  142.1452  168.9345 C.ar    1  UNL1        0.0835
     37 C         139.8853  142.6618  170.1387 C.1     1  UNL1        0.1017
     38 N         139.1552  143.1785  171.3428 N.1     1  UNL1       -0.1908
@<TRIPOS>BOND
     1    26    27    1
     2    27    28   ar
     3    28    29   ar
     4    29    30   ar
     5    30    25    1
     6    25    24    1
     7    24     1    1
     8     1     2    1
     9     2     3    1
    10     3     4    1
    11     4     9    1
    12     9    11    1
    13    11    12    1
    14    12    13   ar
    15    13    14   ar
    16    14    15   ar
    17    15    16   ar
    18    16    17   ar
    19    16    18    1
    20    18    19   am
    21    19    20    2
    22    19    21    1
    23    21    22    1
    24     4     5    1
    25     5     6    1
    26     4     7    1
    27     7     8    1
    28    30    31   ar
    29    31    32   ar
    30    32    33   ar
    31    33    34   ar
    32    34    35   ar
    33    35    36   ar
    34    36    37    1
    35    37    38    3
    36    36    27   ar
    37    34    29   ar
    38     6     1    1
    39     8     1    1
    40    17    12   ar
    41    22    15    1
    42     9    10    1
    43    18    23    1
@<TRIPOS>MOLECULE
*****
 38 43 0 0 0
SMALL
GASTEIGER

@<TRIPOS>ATOM
      1 C         142.5345  138.4541  164.0425 C.3     1  UNL1        0.0932
      2 C         141.4314  138.2568  165.0398 C.3     1  UNL1        0.0286
      3 C         140.0601  137.8667  164.5739 C.3     1  UNL1        0.0193
      4 C         139.7916  137.6739  163.1108 C.3     1  UNL1        0.0700
      5 C         140.8946  137.8711  162.1135 C.3     1  UNL1        0.0193
      6 C         142.2660  138.2612  162.5794 C.3     1  UNL1        0.0286
      7 C         140.5592  137.8877  163.3182 C.3     1  UNL1        0.1562
      8 O         141.7993  138.2404  163.7395 O.3     1  UNL1       -0.3572
      9 N         138.4202  137.2838  162.6449 N.3     1  UNL1       -0.2926
     10 H         137.8340  137.2188  163.4771 H       1  UNL1        0.1236
     11 C         137.6863  138.1503  161.6648 C.3     1  UNL1        0.1152
     12 C         137.8832  139.6372  161.6842 C.ar    1  UNL1        0.0765
     13 C         138.2548  140.3611  160.4240 C.ar    1  UNL1        0.0193
     14 C         138.4516  141.8479  160.4434 C.ar    1  UNL1        0.0411
     15 C         138.2768  142.6110  161.7229 C.ar    1  UNL1        0.1708
     16 C         137.9052  141.8872  162.9831 C.ar    1  UNL1        0.1682
     17 N         137.7084  140.4003  162.9637 N.ar    1  UNL1       -0.2304
     18 N         137.7304  142.6502  164.2626 N.am    1  UNL1       -0.2639
     19 C         137.9272  144.1372  164.2820 C.2     1  UNL1        0.2718
     20 O         137.7524  144.9002  165.5615 O.2     1  UNL1       -0.2707
     21 C         138.2989  144.8610  163.0218 C.3     1  UNL1        0.2898
     22 O         138.4737  144.0979  161.7423 O.3     1  UNL1       -0.4628
     23 H         137.4865  142.1752  165.0896 H       1  UNL1        0.1565
     24 C         143.9059  138.8441  164.5084 C.3     1  UNL1        0.0319
     25 C         144.2262  140.2854  164.7734 C.3     1  UNL1        0.0304
     26 C         142.4471  140.5151  169.8755 C.3     1  UNL1        0.0528
     27 C         142.0687  141.2243  168.6092 C.ar    1  UNL1        0.0690
     28 N         142.7879  140.9113  167.3306 N.ar    1  UNL1       -0.2478
     29 C         142.4094  141.6207  166.0642 C.ar    1  UNL1        0.0946
     30 C         143.1286  141.3077  164.7856 C.ar    1  UNL1       -0.0015
     31 C         142.7502  142.0170  163.5192 C.ar    1  UNL1        0.0179
     32 C         141.6526  143.0392  163.5315 C.ar    1  UNL1        0.0986
     33 N         140.9334  143.3522  164.8101 N.ar    1  UNL1       -0.2423
     34 C         141.3118  142.6430  166.0764 C.ar    1  UNL1        0.0993
     35 C         140.5926  142.9560  167.3550 C.ar    1  UNL1        0.0321
     36 C         140.9710  142.2467  168.6214 C.ar    1  UNL1        0.0835
     37 C         140.2518  142.5597  169.9000 C.1     1  UNL1        0.1017
     38 N         139.5326  142.8727  171.1785 N.1     1  UNL1       -0.1908
@<TRIPOS>BOND
     1    26    27    1
     2    27    28   ar
     3    28    29   ar
     4    29    30   ar
     5    30    25    1
     6    25    24    1
     7    24     1    1
     8     1     2    1
     9     2     3    1
    10     3     4    1
    11     4     9    1
    12     9    11    1
    13    11    12    1
    14    12    13   ar
    15    13    14   ar
    16    14    15   ar
    17    15    16   ar
    18    16    17   ar
    19    16    18    1
    20    18    19   am
    21    19    20    2
    22    19    21    1
    23    21    22    1
    24     4     5    1
    25     5     6    1
    26     4     7    1
    27     7     8    1
    28    30    31   ar
    29    31    32   ar
    30    32    33   ar
    31    33    34   ar
    32    34    35   ar
    33    35    36   ar
    34    36    37    1
    35    37    38    3
    36    36    27   ar
    37    34    29   ar
    38     6     1    1
    39     8     1    1
    40    17    12   ar
    41    22    15    1
    42     9    10    1
    43    18    23    1
@<TRIPOS>MOLECULE
*****
 38 43 0 0 0
SMALL
GASTEIGER

@<TRIPOS>ATOM
      1 C         142.6442  144.1101  163.6702 C.3     1  UNL1        0.0932
      2 C         142.6582  143.8604  162.1911 C.3     1  UNL1        0.0286
      3 C         141.3667  143.7675  161.4340 C.3     1  UNL1        0.0193
      4 C         140.0611  143.9244  162.1557 C.3     1  UNL1        0.0700
      5 C         140.0471  144.1741  163.6347 C.3     1  UNL1        0.0193
      6 C         141.3386  144.2670  164.3920 C.3     1  UNL1        0.0286
      7 C         140.7431  143.9832  162.6134 C.3     1  UNL1        0.1562
      8 O         141.9109  144.0671  163.2981 O.3     1  UNL1       -0.3572
      9 N         138.7696  143.8316  161.3986 N.3     1  UNL1       -0.2926
     10 H         138.8614  144.4389  160.5843 H       1  UNL1        0.1236
     11 C         138.2889  142.5026  160.8956 C.3     1  UNL1        0.1152
     12 C         138.5179  141.2646  161.7110 C.ar    1  UNL1        0.0765
     13 C         139.1836  140.0714  161.0920 C.ar    1  UNL1        0.0193
     14 C         139.4126  138.8334  161.9074 C.ar    1  UNL1        0.0411
     15 C         138.9759  138.7886  163.3418 C.ar    1  UNL1        0.1708
     16 C         138.3102  139.9818  163.9607 C.ar    1  UNL1        0.1682
     17 N         138.0812  141.2199  163.1452 N.ar    1  UNL1       -0.2304
     18 N         137.8735  139.9371  165.3950 N.am    1  UNL1       -0.2639
     19 C         138.1025  138.6991  166.2105 C.2     1  UNL1        0.2718
     20 O         137.6658  138.6543  167.6448 O.2     1  UNL1       -0.2707
     21 C         138.7682  137.5058  165.5916 C.3     1  UNL1        0.2898
     22 O         139.2049  137.5506  164.1572 O.3     1  UNL1       -0.4628
     23 H         137.4366  140.7203  165.8012 H       1  UNL1        0.1565
     24 C         143.9357  144.2029  164.4274 C.3     1  UNL1        0.0319
     25 C         144.6300  142.9534  164.8821 C.3     1  UNL1        0.0304
     26 C         141.8176  142.8431  169.5003 C.3     1  UNL1        0.0528
     27 C         141.9684  141.8906  168.3514 C.ar    1  UNL1        0.0690
     28 N         142.8556  142.2449  167.1950 N.ar    1  UNL1       -0.2478
     29 C         143.0064  141.2923  166.0461 C.ar    1  UNL1        0.0946
     30 C         143.8936  141.6466  164.8896 C.ar    1  UNL1       -0.0015
     31 C         144.0444  140.6941  163.7407 C.ar    1  UNL1        0.0179
     32 C         143.3081  139.3874  163.7483 C.ar    1  UNL1        0.0986
     33 N         142.4209  139.0331  164.9047 N.ar    1  UNL1       -0.2423
     34 C         142.2700  139.9856  166.0536 C.ar    1  UNL1        0.0993
     35 C         141.3829  139.6313  167.2101 C.ar    1  UNL1        0.0321
     36 C         141.2320  140.5838  168.3590 C.ar    1  UNL1        0.0835
     37 C         140.3448  140.2295  169.5154 C.1     1  UNL1        0.1017
     38 N         139.4576  139.8752  170.6719 N.1     1  UNL1       -0.1908
@<TRIPOS>BOND
     1    26    27    1
     2    27    28   ar
     3    28    29   ar
     4    29    30   ar
     5    30    25    1
     6    25    24    1
     7    24     1    1
     8     1     2    1
     9     2     3    1
    10     3     4    1
    11     4     9    1
    12     9    11    1
    13    11    12    1
    14    12    13   ar
    15    13    14   ar
    16    14    15   ar
    17    15    16   ar
    18    16    17   ar
    19    16    18    1
    20    18    19   am
    21    19    20    2
    22    19    21    1
    23    21    22    1
    24     4     5    1
    25     5     6    1
    26     4     7    1
    27     7     8    1
    28    30    31   ar
    29    31    32   ar
    30    32    33   ar
    31    33    34   ar
    32    34    35   ar
    33    35    36   ar
    34    36    37    1
    35    37    38    3
    36    36    27   ar
    37    34    29   ar
    38     6     1    1
    39     8     1    1
    40    17    12   ar
    41    22    15    1
    42     9    10    1
    43    18    23    1
@<TRIPOS>MOLECULE
*****
 38 43 0 0 0
SMALL
GASTEIGER

@<TRIPOS>ATOM
      1 C         140.8473  144.7181  163.2210 C.3     1  UNL1        0.0932
      2 C         141.0250  144.0547  161.8874 C.3     1  UNL1        0.0286
      3 C         142.3865  143.6013  161.4507 C.3     1  UNL1        0.0193
      4 C         143.5704  143.8113  162.3476 C.3     1  UNL1        0.0700
      5 C         143.3928  144.4747  163.6811 C.3     1  UNL1        0.0193
      6 C         142.0312  144.9281  164.1178 C.3     1  UNL1        0.0286
      7 C         142.8439  144.0767  162.6302 C.3     1  UNL1        0.1562
      8 O         141.6128  144.4867  163.0250 O.3     1  UNL1       -0.3572
      9 N         144.9318  143.3579  161.9109 N.3     1  UNL1       -0.2926
     10 H         145.5779  144.1176  162.1249 H       1  UNL1        0.1236
     11 C         145.5270  142.1078  162.4881 C.3     1  UNL1        0.1152
     12 C         144.6342  140.9837  162.9232 C.ar    1  UNL1        0.0765
     13 C         144.9335  140.2346  164.1878 C.ar    1  UNL1        0.0193
     14 C         144.0407  139.1105  164.6229 C.ar    1  UNL1        0.0411
     15 C         142.8486  138.7354  163.7932 C.ar    1  UNL1        0.1708
     16 C         142.5493  139.4844  162.5286 C.ar    1  UNL1        0.1682
     17 N         143.4422  140.6086  162.0936 N.ar    1  UNL1       -0.2304
     18 N         141.3573  139.1094  161.6989 N.am    1  UNL1       -0.2639
     19 C         140.4644  137.9852  162.1340 C.2     1  UNL1        0.2718
     20 O         139.2724  137.6102  161.3043 O.2     1  UNL1       -0.2707
     21 C         140.7637  137.2362  163.3986 C.3     1  UNL1        0.2898
     22 O         141.9558  137.6113  164.2283 O.3     1  UNL1       -0.4628
     23 H         141.1609  139.6010  160.8689 H       1  UNL1        0.1565
     24 C         139.4858  145.1716  163.6577 C.3     1  UNL1        0.0319
     25 C         138.7385  144.4002  164.7048 C.3     1  UNL1        0.0304
     26 C         142.1731  142.6257  168.4869 C.3     1  UNL1        0.0528
     27 C         141.2781  141.9460  167.4935 C.ar    1  UNL1        0.0690
     28 N         140.4316  142.7640  166.5639 N.ar    1  UNL1       -0.2478
     29 C         139.5365  142.0842  165.5706 C.ar    1  UNL1        0.0946
     30 C         138.6899  142.9022  164.6410 C.ar    1  UNL1       -0.0015
     31 C         137.7949  142.2225  163.6477 C.ar    1  UNL1        0.0179
     32 C         137.7464  140.7246  163.5839 C.ar    1  UNL1        0.0986
     33 N         138.5929  139.9066  164.5135 N.ar    1  UNL1       -0.2423
     34 C         139.4880  140.5864  165.5068 C.ar    1  UNL1        0.0993
     35 C         140.3345  139.7683  166.4364 C.ar    1  UNL1        0.0321
     36 C         141.2295  140.4481  167.4298 C.ar    1  UNL1        0.0835
     37 C         142.0761  139.6300  168.3594 C.1     1  UNL1        0.1017
     38 N         142.9226  138.8119  169.2890 N.1     1  UNL1       -0.1908
@<TRIPOS>BOND
     1    26    27    1
     2    27    28   ar
     3    28    29   ar
     4    29    30   ar
     5    30    25    1
     6    25    24    1
     7    24     1    1
     8     1     2    1
     9     2     3    1
    10     3     4    1
    11     4     9    1
    12     9    11    1
    13    11    12    1
    14    12    13   ar
    15    13    14   ar
    16    14    15   ar
    17    15    16   ar
    18    16    17   ar
    19    16    18    1
    20    18    19   am
    21    19    20    2
    22    19    21    1
    23    21    22    1
    24     4     5    1
    25     5     6    1
    26     4     7    1
    27     7     8    1
    28    30    31   ar
    29    31    32   ar
    30    32    33   ar
    31    33    34   ar
    32    34    35   ar
    33    35    36   ar
    34    36    37    1
    35    37    38    3
    36    36    27   ar
    37    34    29   ar
    38     6     1    1
    39     8     1    1
    40    17    12   ar
    41    22    15    1
    42     9    10    1
    43    18    23    1
@<TRIPOS>MOLECULE
*****
 38 43 0 0 0
SMALL
GASTEIGER

@<TRIPOS>ATOM
      1 C         139.1457  143.4223  163.5213 C.3     1  UNL1        0.0932
      2 C         140.0436  143.9442  164.6037 C.3     1  UNL1        0.0286
      3 C         141.3733  144.5424  164.2515 C.3     1  UNL1        0.0193
      4 C         141.8051  144.6188  162.8170 C.3     1  UNL1        0.0700
      5 C         140.9072  144.0969  161.7347 C.3     1  UNL1        0.0193
      6 C         139.5774  143.4986  162.0868 C.3     1  UNL1        0.0286
      7 C         141.0675  144.2823  162.9610 C.3     1  UNL1        0.1562
      8 O         139.8651  143.7414  163.2795 O.3     1  UNL1       -0.3572
      9 N         143.1347  145.2170  162.4648 N.3     1  UNL1       -0.2926
     10 H         143.2275  146.0720  163.0132 H       1  UNL1        0.1236
     11 C         144.3924  144.4275  162.6776 C.3     1  UNL1        0.1152
     12 C         144.3570  142.9293  162.6153 C.ar    1  UNL1        0.0765
     13 C         144.7319  142.1195  163.8210 C.ar    1  UNL1        0.0193
     14 C         144.6965  140.6212  163.7587 C.ar    1  UNL1        0.0411
     15 C         144.2861  139.9327  162.4908 C.ar    1  UNL1        0.1708
     16 C         143.9112  140.7425  161.2851 C.ar    1  UNL1        0.1682
     17 N         143.9466  142.2409  161.3474 N.ar    1  UNL1       -0.2304
     18 N         143.5008  140.0541  160.0172 N.am    1  UNL1       -0.2639
     19 C         143.4654  138.5558  159.9549 C.2     1  UNL1        0.2718
     20 O         143.0550  137.8673  158.6870 O.2     1  UNL1       -0.2707
     21 C         143.8404  137.7459  161.1606 C.3     1  UNL1        0.2898
     22 O         144.2507  138.4344  162.4285 O.3     1  UNL1       -0.4628
     23 H         143.2547  140.5856  159.2259 H       1  UNL1        0.1565
     24 C         137.8160  142.8240  163.8735 C.3     1  UNL1        0.0319
     25 C         137.7471  141.4543  164.4809 C.3     1  UNL1        0.0304
     26 C         141.9832  140.2931  167.6364 C.3     1  UNL1        0.0528
     27 C         141.4538  139.7221  166.3543 C.ar    1  UNL1        0.0690
     28 N         140.2182  140.2995  165.7299 N.ar    1  UNL1       -0.2478
     29 C         139.6888  139.7284  164.4478 C.ar    1  UNL1        0.0946
     30 C         138.4533  140.3058  163.8233 C.ar    1  UNL1       -0.0015
     31 C         137.9239  139.7348  162.5413 C.ar    1  UNL1        0.0179
     32 C         138.6301  138.5864  161.8837 C.ar    1  UNL1        0.0986
     33 N         139.8656  138.0090  162.5082 N.ar    1  UNL1       -0.2423
     34 C         140.3950  138.5800  163.7902 C.ar    1  UNL1        0.0993
     35 C         141.6306  138.0026  164.4147 C.ar    1  UNL1        0.0321
     36 C         142.1600  138.5736  165.6967 C.ar    1  UNL1        0.0835
     37 C         143.3956  137.9962  166.3212 C.1     1  UNL1        0.1017
     38 N         144.6312  137.4188  166.9456 N.1     1  UNL1       -0.1908
@<TRIPOS>BOND
     1    26    27    1
     2    27    28   ar
     3    28    29   ar
     4    29    30   ar
     5    30    25    1
     6    25    24    1
     7    24     1    1
     8     1     2    1
     9     2     3    1
    10     3     4    1
    11     4     9    1
    12     9    11    1
    13    11    12    1
    14    12    13   ar
    15    13    14   ar
    16    14    15   ar
    17    15    16   ar
    18    16    17   ar
    19    16    18    1
    20    18    19   am
    21    19    20    2
    22    19    21    1
    23    21    22    1
    24     4     5    1
    25     5     6    1
    26     4     7    1
    27     7     8    1
    28    30    31   ar
    29    31    32   ar
    30    32    33   ar
    31    33    34   ar
    32    34    35   ar
    33    35    36   ar
    34    36    37    1
    35    37    38    3
    36    36    27   ar
    37    34    29   ar
    38     6     1    1
    39     8     1    1
    40    17    12   ar
    41    22    15    1
    42     9    10    1
    43    18    23    1
