@<TRIPOS>MOLECULE
*****
 36 40 0 0 0
SMALL
GASTEIGER

@<TRIPOS>ATOM
      1 C         143.4763  142.6382  166.4666 C.3     1  UNL1        0.0033
      2 C         142.6377  142.4504  165.2371 C.3     1  UNL1        0.0080
      3 C         141.3032  143.1268  165.1290 C.3     1  UNL1        0.0177
      4 C         140.4646  142.9391  163.8996 C.3     1  UNL1        0.0721
      5 N         140.9605  142.0750  162.7783 N.3     1  UNL1       -0.2736
      6 C         142.2950  141.3986  162.8863 C.3     1  UNL1        0.0776
      7 C         143.1336  141.5864  164.1158 C.3     1  UNL1        0.0525
      8 C         140.1220  141.8872  161.5488 C.3     1  UNL1        0.0584
      9 C         138.7959  142.4082  161.0797 C.3     1  UNL1        0.0236
     10 C         138.9360  141.6217  159.8101 C.3     1  UNL1        0.0628
     11 C         140.2621  141.1008  160.2792 C.3     1  UNL1        0.0236
     12 C         138.0974  141.4340  158.5806 C.ar    1  UNL1        0.1541
     13 C         137.8386  142.4664  157.5238 C.ar    1  UNL1        0.0596
     14 C         136.9517  141.8513  156.4822 C.ar    1  UNL1        0.1435
     15 N         136.6623  140.4387  156.8953 N.ar    1  UNL1       -0.0757
     16 O         137.3704  140.1808  158.1922 O.2     1  UNL1       -0.3577
     17 C         144.4681  140.9100  164.2239 C.2     1  UNL1        0.0513
     18 O         145.7126  141.6353  163.8054 O.co2   1  UNL1       -0.5491
     19 O         144.5581  139.5083  164.7504 O.co2   1  UNL1       -0.5491
     20 C         143.0248  142.0648  167.7770 C.3     1  UNL1        0.0339
     21 C         142.5779  140.6351  167.8560 C.3     1  UNL1        0.1350
     22 O         143.5366  139.5302  167.5241 O.3     1  UNL1       -0.3800
     23 H         144.3953  139.9096  167.2801 H       1  UNL1        0.2108
     24 C         139.6865  138.9508  164.8472 C.ar    1  UNL1        0.1388
     25 C         138.2809  138.6260  165.2581 C.ar    1  UNL1        0.0384
     26 C         137.8392  138.8626  166.6719 C.ar    1  UNL1        0.0222
     27 C         138.8029  139.4240  167.6748 C.ar    1  UNL1        0.0814
     28 N         138.3611  139.6607  169.0886 N.ar    1  UNL1       -0.2415
     29 C         139.3249  140.2221  170.0915 C.ar    1  UNL1        0.1281
     30 C         140.7305  140.5469  169.6807 C.ar    1  UNL1        0.1575
     31 F         141.6943  141.1083  170.6836 F       1  UNL1       -0.2028
     32 C         141.1723  140.3103  168.2669 C.ar    1  UNL1        0.0348
     33 C         140.2085  139.7488  167.2639 C.ar    1  UNL1        0.0212
     34 C         140.6503  139.5122  165.8501 C.ar    1  UNL1        0.0382
     35 C         139.1466  138.2168  162.4142 C.3     1  UNL1        0.2525
     36 O         140.1283  138.7142  163.4334 O.3     1  UNL1       -0.4714
@<TRIPOS>UNITY_ATOM_ATTR
18 1
charge -1
@<TRIPOS>BOND
     1    35    36    1
     2    36    24    1
     3    24    25   ar
     4    25    26   ar
     5    26    27   ar
     6    27    28   ar
     7    28    29   ar
     8    29    30   ar
     9    30    31    1
    10    30    32   ar
    11    32    21    1
    12    21    22    1
    13    21    20    1
    14    20     1    1
    15     2     1    1
    16     2     3    1
    17     3     4    1
    18     4     5    1
    19     5     8    1
    20     8     9    1
    21     9    10    1
    22    10    12    1
    23    12    13   ar
    24    13    14   ar
    25    14    15   ar
    26    15    16   ar
    27    10    11    1
    28     5     6    1
    29     6     7    1
    30     7    17    1
    31    17    18   ar
    32    17    19   ar
    33    32    33   ar
    34    33    34   ar
    35    34    24   ar
    36    33    27   ar
    37     7     2    1
    38    11     8    1
    39    16    12   ar
    40    22    23    1
@<TRIPOS>MOLECULE
*****
 36 40 0 0 0
SMALL
GASTEIGER

@<TRIPOS>ATOM
      1 C         143.8972  142.6362  165.3480 C.3     1  UNL1        0.0033
      2 C         143.7025  141.8260  164.1008 C.3     1  UNL1        0.0080
      3 C         143.9061  140.3402  164.1323 C.3     1  UNL1        0.0177
      4 C         143.7114  139.5299  162.8851 C.3     1  UNL1        0.0721
      5 N         143.3131  140.2054  161.6064 N.3     1  UNL1       -0.2736
      6 C         143.1094  141.6912  161.5749 C.3     1  UNL1        0.0776
      7 C         143.3041  142.5015  162.8222 C.3     1  UNL1        0.0525
      8 C         143.1184  139.3952  160.3592 C.3     1  UNL1        0.0584
      9 C         142.6230  138.0113  160.0599 C.3     1  UNL1        0.0236
     10 C         142.8430  138.2493  158.5953 C.3     1  UNL1        0.0628
     11 C         143.3384  139.6331  158.8946 C.3     1  UNL1        0.0236
     12 C         142.6483  137.4390  157.3481 C.ar    1  UNL1        0.1541
     13 C         141.3332  136.9822  156.7898 C.ar    1  UNL1        0.0596
     14 C         141.6067  136.2042  155.5369 C.ar    1  UNL1        0.1435
     15 N         143.0908  136.1802  155.3208 N.ar    1  UNL1       -0.0757
     16 O         143.7346  136.9434  156.4402 O.2     1  UNL1       -0.3577
     17 C         143.1004  143.9873  162.7907 C.2     1  UNL1        0.0513
     18 O         144.2682  144.8995  162.5583 O.co2   1  UNL1       -0.5491
     19 O         141.7290  144.5607  162.9916 O.co2   1  UNL1       -0.5491
     20 C         143.0083  142.4109  166.5351 C.3     1  UNL1        0.0339
     21 C         141.5185  142.4973  166.3837 C.3     1  UNL1        0.1350
     22 O         140.9150  143.5338  165.4828 O.3     1  UNL1       -0.3800
     23 H         141.6214  144.0612  165.0781 H       1  UNL1        0.2108
     24 C         139.5942  139.0441  164.2337 C.ar    1  UNL1        0.1388
     25 C         138.7079  138.0941  164.9832 C.ar    1  UNL1        0.0384
     26 C         138.4629  138.2951  166.4493 C.ar    1  UNL1        0.0222
     27 C         139.1043  139.4462  167.1660 C.ar    1  UNL1        0.0814
     28 N         138.8593  139.6472  168.6321 N.ar    1  UNL1       -0.2415
     29 C         139.5007  140.7983  169.3488 C.ar    1  UNL1        0.1281
     30 C         140.3871  141.7484  168.5993 C.ar    1  UNL1        0.1575
     31 F         141.0285  142.8994  169.3160 F       1  UNL1       -0.2028
     32 C         140.6321  141.5473  167.1332 C.ar    1  UNL1        0.0348
     33 C         139.9906  140.3962  166.4165 C.ar    1  UNL1        0.0212
     34 C         140.2356  140.1951  164.9504 C.ar    1  UNL1        0.0382
     35 C         138.7431  138.3167  161.8893 C.3     1  UNL1        0.2525
     36 O         139.8392  138.8430  162.7676 O.3     1  UNL1       -0.4714
@<TRIPOS>UNITY_ATOM_ATTR
18 1
charge -1
@<TRIPOS>BOND
     1    35    36    1
     2    36    24    1
     3    24    25   ar
     4    25    26   ar
     5    26    27   ar
     6    27    28   ar
     7    28    29   ar
     8    29    30   ar
     9    30    31    1
    10    30    32   ar
    11    32    21    1
    12    21    22    1
    13    21    20    1
    14    20     1    1
    15     2     1    1
    16     2     3    1
    17     3     4    1
    18     4     5    1
    19     5     8    1
    20     8     9    1
    21     9    10    1
    22    10    12    1
    23    12    13   ar
    24    13    14   ar
    25    14    15   ar
    26    15    16   ar
    27    10    11    1
    28     5     6    1
    29     6     7    1
    30     7    17    1
    31    17    18   ar
    32    17    19   ar
    33    32    33   ar
    34    33    34   ar
    35    34    24   ar
    36    33    27   ar
    37     7     2    1
    38    11     8    1
    39    16    12   ar
    40    22    23    1
@<TRIPOS>MOLECULE
*****
 36 40 0 0 0
SMALL
GASTEIGER

@<TRIPOS>ATOM
      1 C         140.6610  142.8826  166.6767 C.3     1  UNL1        0.0033
      2 C         141.2692  142.6287  165.3293 C.3     1  UNL1        0.0080
      3 C         142.7609  142.6070  165.1718 C.3     1  UNL1        0.0177
      4 C         143.3692  142.3531  163.8244 C.3     1  UNL1        0.0721
      5 N         142.4859  142.1208  162.6345 N.3     1  UNL1       -0.2736
      6 C         140.9944  142.1425  162.7919 C.3     1  UNL1        0.0776
      7 C         140.3860  142.3964  164.1393 C.3     1  UNL1        0.0525
      8 C         143.0942  141.8669  161.2871 C.3     1  UNL1        0.0584
      9 C         142.5952  141.3134  159.9853 C.3     1  UNL1        0.0236
     10 C         143.9545  141.5078  159.3815 C.3     1  UNL1        0.0628
     11 C         144.4535  142.0612  160.6833 C.3     1  UNL1        0.0236
     12 C         144.5628  141.2538  158.0342 C.ar    1  UNL1        0.1541
     13 C         145.0499  142.2995  157.0755 C.ar    1  UNL1        0.0596
     14 C         145.5790  141.6016  155.8577 C.ar    1  UNL1        0.1435
     15 N         145.4188  140.1245  156.0638 N.ar    1  UNL1       -0.0757
     16 O         144.7907  139.9096  157.4089 O.2     1  UNL1       -0.3577
     17 C         138.8945  142.4181  164.2968 C.2     1  UNL1        0.0513
     18 O         138.1593  143.7255  164.2964 O.co2   1  UNL1       -0.5491
     19 O         138.1382  141.1324  164.4546 O.co2   1  UNL1       -0.5491
     20 C         141.1368  142.1111  167.8718 C.3     1  UNL1        0.0339
     21 C         141.3649  140.6322  167.7676 C.3     1  UNL1        0.1350
     22 O         142.6226  140.0268  168.3169 O.3     1  UNL1       -0.3800
     23 H         143.1758  140.7244  168.7020 H       1  UNL1        0.2108
     24 C         142.3538  138.4545  163.9559 C.ar    1  UNL1        0.1388
     25 C         141.3243  137.5810  163.3024 C.ar    1  UNL1        0.0384
     26 C         139.9651  137.4334  163.9196 C.ar    1  UNL1        0.0222
     27 C         139.6354  138.1593  165.1901 C.ar    1  UNL1        0.0814
     28 N         138.2763  138.0117  165.8072 N.ar    1  UNL1       -0.2415
     29 C         137.9466  138.7376  167.0778 C.ar    1  UNL1        0.1281
     30 C         138.9762  139.6111  167.7313 C.ar    1  UNL1        0.1575
     31 F         138.6466  140.3370  169.0019 F       1  UNL1       -0.2028
     32 C         140.3354  139.7587  167.1142 C.ar    1  UNL1        0.0348
     33 C         140.6650  139.0328  165.8435 C.ar    1  UNL1        0.0212
     34 C         142.0242  139.1804  165.2264 C.ar    1  UNL1        0.0382
     35 C         143.9043  138.3393  161.8744 C.3     1  UNL1        0.2525
     36 O         143.7130  138.6021  163.3387 O.3     1  UNL1       -0.4714
@<TRIPOS>UNITY_ATOM_ATTR
18 1
charge -1
@<TRIPOS>BOND
     1    35    36    1
     2    36    24    1
     3    24    25   ar
     4    25    26   ar
     5    26    27   ar
     6    27    28   ar
     7    28    29   ar
     8    29    30   ar
     9    30    31    1
    10    30    32   ar
    11    32    21    1
    12    21    22    1
    13    21    20    1
    14    20     1    1
    15     2     1    1
    16     2     3    1
    17     3     4    1
    18     4     5    1
    19     5     8    1
    20     8     9    1
    21     9    10    1
    22    10    12    1
    23    12    13   ar
    24    13    14   ar
    25    14    15   ar
    26    15    16   ar
    27    10    11    1
    28     5     6    1
    29     6     7    1
    30     7    17    1
    31    17    18   ar
    32    17    19   ar
    33    32    33   ar
    34    33    34   ar
    35    34    24   ar
    36    33    27   ar
    37     7     2    1
    38    11     8    1
    39    16    12   ar
    40    22    23    1
@<TRIPOS>MOLECULE
*****
 36 40 0 0 0
SMALL
GASTEIGER

@<TRIPOS>ATOM
      1 C         137.8461  142.0508  164.1779 C.3     1  UNL1        0.0033
      2 C         138.6549  141.3822  163.1062 C.3     1  UNL1        0.0080
      3 C         138.6826  141.9550  161.7201 C.3     1  UNL1        0.0177
      4 C         139.4915  141.2864  160.6483 C.3     1  UNL1        0.0721
      5 N         140.2727  140.0451  160.9626 N.3     1  UNL1       -0.2736
      6 C         140.2450  139.4723  162.3486 C.3     1  UNL1        0.0776
      7 C         139.4361  140.1409  163.4205 C.3     1  UNL1        0.0525
      8 C         141.0816  139.3765  159.8909 C.3     1  UNL1        0.0584
      9 C         140.7707  138.4676  158.7388 C.3     1  UNL1        0.0236
     10 C         142.2255  138.4309  158.3751 C.3     1  UNL1        0.0628
     11 C         142.5364  139.3398  159.5272 C.3     1  UNL1        0.0236
     12 C         143.0344  137.7624  157.3033 C.ar    1  UNL1        0.1541
     13 C         142.8887  136.3413  156.8459 C.ar    1  UNL1        0.0596
     14 C         143.8953  136.0982  155.7607 C.ar    1  UNL1        0.1435
     15 N         144.6631  137.3690  155.5475 N.ar    1  UNL1       -0.0757
     16 O         144.1310  138.3975  156.5009 O.2     1  UNL1       -0.3577
     17 C         139.4085  139.5681  164.8065 C.2     1  UNL1        0.0513
     18 O         138.1047  139.1508  165.4196 O.co2   1  UNL1       -0.5491
     19 O         140.6846  139.4127  165.5794 O.co2   1  UNL1       -0.5491
     20 C         137.7155  143.5450  164.1970 C.3     1  UNL1        0.0339
     21 C         138.7747  144.3821  164.8508 C.3     1  UNL1        0.1350
     22 O         138.3933  145.4051  165.8795 O.3     1  UNL1       -0.3800
     23 H         137.4312  145.3963  166.0029 H       1  UNL1        0.2108
     24 C         141.5096  142.0175  167.5301 C.ar    1  UNL1        0.1388
     25 C         142.9501  141.8317  167.1553 C.ar    1  UNL1        0.0384
     26 C         143.4789  142.4341  165.8875 C.ar    1  UNL1        0.0222
     27 C         142.5673  143.2223  164.9944 C.ar    1  UNL1        0.0814
     28 N         143.0961  143.8246  163.7265 N.ar    1  UNL1       -0.2415
     29 C         142.1845  144.6128  162.8334 C.ar    1  UNL1        0.1281
     30 C         140.7440  144.7987  163.2082 C.ar    1  UNL1        0.1575
     31 F         139.8323  145.5869  162.3151 F       1  UNL1       -0.2028
     32 C         140.2151  144.1963  164.4760 C.ar    1  UNL1        0.0348
     33 C         141.1268  143.4081  165.3691 C.ar    1  UNL1        0.0212
     34 C         140.5980  142.8057  166.6370 C.ar    1  UNL1        0.0382
     35 C         139.7135  140.6130  168.7756 C.3     1  UNL1        0.2525
     36 O         140.9808  141.4152  168.7980 O.3     1  UNL1       -0.4714
@<TRIPOS>UNITY_ATOM_ATTR
18 1
charge -1
@<TRIPOS>BOND
     1    35    36    1
     2    36    24    1
     3    24    25   ar
     4    25    26   ar
     5    26    27   ar
     6    27    28   ar
     7    28    29   ar
     8    29    30   ar
     9    30    31    1
    10    30    32   ar
    11    32    21    1
    12    21    22    1
    13    21    20    1
    14    20     1    1
    15     2     1    1
    16     2     3    1
    17     3     4    1
    18     4     5    1
    19     5     8    1
    20     8     9    1
    21     9    10    1
    22    10    12    1
    23    12    13   ar
    24    13    14   ar
    25    14    15   ar
    26    15    16   ar
    27    10    11    1
    28     5     6    1
    29     6     7    1
    30     7    17    1
    31    17    18   ar
    32    17    19   ar
    33    32    33   ar
    34    33    34   ar
    35    34    24   ar
    36    33    27   ar
    37     7     2    1
    38    11     8    1
    39    16    12   ar
    40    22    23    1
@<TRIPOS>MOLECULE
*****
 36 40 0 0 0
SMALL
GASTEIGER

@<TRIPOS>ATOM
      1 C         143.6483  142.5759  165.4333 C.3     1  UNL1        0.0033
      2 C         143.0906  143.1128  164.1485 C.3     1  UNL1        0.0080
      3 C         142.1084  144.2463  164.1729 C.3     1  UNL1        0.0177
      4 C         141.5508  144.7831  162.8881 C.3     1  UNL1        0.0721
      5 N         141.9753  144.1866  161.5789 N.3     1  UNL1       -0.2736
      6 C         142.9575  143.0532  161.5545 C.3     1  UNL1        0.0776
      7 C         143.5152  142.5163  162.8393 C.3     1  UNL1        0.0525
      8 C         141.4176  144.7235  160.2941 C.3     1  UNL1        0.0584
      9 C         141.8926  144.7778  158.8723 C.3     1  UNL1        0.0236
     10 C         140.6290  145.4828  158.4770 C.3     1  UNL1        0.0628
     11 C         140.1540  145.4286  159.8988 C.3     1  UNL1        0.0236
     12 C         140.0713  146.0197  157.1922 C.ar    1  UNL1        0.1541
     13 C         140.1261  145.3413  155.8556 C.ar    1  UNL1        0.0596
     14 C         139.4496  146.2316  154.8558 C.ar    1  UNL1        0.1435
     15 N         138.9767  147.4603  155.5745 N.ar    1  UNL1       -0.0757
     16 O         139.3610  147.3294  157.0185 O.2     1  UNL1       -0.3577
     17 C         144.4974  141.3828  162.8150 C.2     1  UNL1        0.0513
     18 O         145.9665  141.6610  162.9334 O.co2   1  UNL1       -0.5491
     19 O         144.0103  139.9713  162.6721 O.co2   1  UNL1       -0.5491
     20 C         143.2728  141.1996  165.8967 C.3     1  UNL1        0.0339
     21 C         141.8507  140.8934  166.2627 C.3     1  UNL1        0.1350
     22 O         141.2706  141.4350  167.5355 O.3     1  UNL1       -0.3800
     23 H         141.9424  141.9580  168.0002 H       1  UNL1        0.2108
     24 C         138.2255  142.6538  164.2606 C.ar    1  UNL1        0.1388
     25 C         137.3836  141.8060  163.3538 C.ar    1  UNL1        0.0384
     26 C         137.7501  140.3713  163.1144 C.ar    1  UNL1        0.0222
     27 C         138.9585  139.7844  163.7817 C.ar    1  UNL1        0.0814
     28 N         139.3249  138.3497  163.5423 N.ar    1  UNL1       -0.2415
     29 C         140.5333  137.7629  164.2097 C.ar    1  UNL1        0.1281
     30 C         141.3753  138.6108  165.1165 C.ar    1  UNL1        0.1575
     31 F         142.5837  138.0240  165.7838 F       1  UNL1       -0.2028
     32 C         141.0088  140.0455  165.3559 C.ar    1  UNL1        0.0348
     33 C         139.8003  140.6323  164.6885 C.ar    1  UNL1        0.0212
     34 C         139.4339  142.0670  164.9279 C.ar    1  UNL1        0.0382
     35 C         138.6604  144.9172  165.4597 C.3     1  UNL1        0.2525
     36 O         137.8590  144.0885  164.5000 O.3     1  UNL1       -0.4714
@<TRIPOS>UNITY_ATOM_ATTR
18 1
charge -1
@<TRIPOS>BOND
     1    35    36    1
     2    36    24    1
     3    24    25   ar
     4    25    26   ar
     5    26    27   ar
     6    27    28   ar
     7    28    29   ar
     8    29    30   ar
     9    30    31    1
    10    30    32   ar
    11    32    21    1
    12    21    22    1
    13    21    20    1
    14    20     1    1
    15     2     1    1
    16     2     3    1
    17     3     4    1
    18     4     5    1
    19     5     8    1
    20     8     9    1
    21     9    10    1
    22    10    12    1
    23    12    13   ar
    24    13    14   ar
    25    14    15   ar
    26    15    16   ar
    27    10    11    1
    28     5     6    1
    29     6     7    1
    30     7    17    1
    31    17    18   ar
    32    17    19   ar
    33    32    33   ar
    34    33    34   ar
    35    34    24   ar
    36    33    27   ar
    37     7     2    1
    38    11     8    1
    39    16    12   ar
    40    22    23    1
@<TRIPOS>MOLECULE
*****
 36 40 0 0 0
SMALL
GASTEIGER

@<TRIPOS>ATOM
      1 C         140.5815  137.8024  165.0929 C.3     1  UNL1        0.0033
      2 C         141.1537  138.1949  163.7631 C.3     1  UNL1        0.0080
      3 C         140.4688  137.7717  162.4974 C.3     1  UNL1        0.0177
      4 C         141.0410  138.1642  161.1676 C.3     1  UNL1        0.0721
      5 N         142.2981  138.9799  161.1033 N.3     1  UNL1       -0.2736
      6 C         142.9831  139.4032  162.3689 C.3     1  UNL1        0.0776
      7 C         142.4109  139.0107  163.6988 C.3     1  UNL1        0.0525
      8 C         142.8704  139.3724  159.7735 C.3     1  UNL1        0.0584
      9 C         142.7805  138.8293  158.3782 C.3     1  UNL1        0.0236
     10 C         143.6796  139.9275  157.8927 C.3     1  UNL1        0.0628
     11 C         143.7694  140.4706  159.2880 C.3     1  UNL1        0.0236
     12 C         144.2518  140.3200  156.5629 C.ar    1  UNL1        0.1541
     13 C         143.6567  141.3079  155.6039 C.ar    1  UNL1        0.0596
     14 C         144.5567  141.3920  154.4069 C.ar    1  UNL1        0.1435
     15 N         145.7081  140.4560  154.6261 N.ar    1  UNL1       -0.0757
     16 O         145.5197  139.7935  155.9586 O.2     1  UNL1       -0.3577
     17 C         143.0958  139.4340  164.9643 C.2     1  UNL1        0.0513
     18 O         142.8605  140.8066  165.5215 O.co2   1  UNL1       -0.5491
     19 O         144.0160  138.4846  165.6728 O.co2   1  UNL1       -0.5491
     20 C         139.0955  137.7933  165.2967 C.3     1  UNL1        0.0339
     21 C         138.4570  138.8007  166.2064 C.3     1  UNL1        0.1350
     22 O         137.2157  138.4425  166.9685 O.3     1  UNL1       -0.3800
     23 H         136.9607  137.5300  166.7607 H       1  UNL1        0.2108
     24 C         138.0636  141.8051  162.8794 C.ar    1  UNL1        0.1388
     25 C         138.6664  143.1707  163.0269 C.ar    1  UNL1        0.0384
     26 C         139.4003  143.5348  164.2834 C.ar    1  UNL1        0.0222
     27 C         139.5314  142.5334  165.3924 C.ar    1  UNL1        0.0814
     28 N         140.2653  142.8976  166.6489 N.ar    1  UNL1       -0.2415
     29 C         140.3964  141.8961  167.7578 C.ar    1  UNL1        0.1281
     30 C         139.7936  140.5305  167.6104 C.ar    1  UNL1        0.1575
     31 F         139.9248  139.5290  168.7194 F       1  UNL1       -0.2028
     32 C         139.0597  140.1663  166.3539 C.ar    1  UNL1        0.0348
     33 C         138.9286  141.1678  165.2448 C.ar    1  UNL1        0.0212
     34 C         138.1947  140.8037  163.9884 C.ar    1  UNL1        0.0382
     35 C         137.6045  140.1305  160.9468 C.3     1  UNL1        0.2525
     36 O         137.3297  141.4409  161.6229 O.3     1  UNL1       -0.4714
@<TRIPOS>UNITY_ATOM_ATTR
18 1
charge -1
@<TRIPOS>BOND
     1    35    36    1
     2    36    24    1
     3    24    25   ar
     4    25    26   ar
     5    26    27   ar
     6    27    28   ar
     7    28    29   ar
     8    29    30   ar
     9    30    31    1
    10    30    32   ar
    11    32    21    1
    12    21    22    1
    13    21    20    1
    14    20     1    1
    15     2     1    1
    16     2     3    1
    17     3     4    1
    18     4     5    1
    19     5     8    1
    20     8     9    1
    21     9    10    1
    22    10    12    1
    23    12    13   ar
    24    13    14   ar
    25    14    15   ar
    26    15    16   ar
    27    10    11    1
    28     5     6    1
    29     6     7    1
    30     7    17    1
    31    17    18   ar
    32    17    19   ar
    33    32    33   ar
    34    33    34   ar
    35    34    24   ar
    36    33    27   ar
    37     7     2    1
    38    11     8    1
    39    16    12   ar
    40    22    23    1
@<TRIPOS>MOLECULE
*****
 36 40 0 0 0
SMALL
GASTEIGER

@<TRIPOS>ATOM
      1 C         138.5982  142.0014  164.5920 C.3     1  UNL1        0.0033
      2 C         139.2764  141.2786  163.4661 C.3     1  UNL1        0.0080
      3 C         139.5458  139.8069  163.5739 C.3     1  UNL1        0.0177
      4 C         140.2240  139.0842  162.4481 C.3     1  UNL1        0.0721
      5 N         140.6328  139.8330  161.2143 N.3     1  UNL1       -0.2736
      6 C         140.3633  141.3047  161.1064 C.3     1  UNL1        0.0776
      7 C         139.6851  142.0275  162.2324 C.3     1  UNL1        0.0525
      8 C         141.3109  139.1103  160.0884 C.3     1  UNL1        0.0584
      9 C         142.5318  138.2477  159.9645 C.3     1  UNL1        0.0236
     10 C         142.2701  138.0881  158.4961 C.3     1  UNL1        0.0628
     11 C         141.0493  138.9507  158.6201 C.3     1  UNL1        0.0236
     12 C         142.9483  137.3653  157.3703 C.ar    1  UNL1        0.1541
     13 C         142.6916  135.9483  156.9507 C.ar    1  UNL1        0.0596
     14 C         143.5869  135.6399  155.7874 C.ar    1  UNL1        0.1435
     15 N         144.3970  136.8663  155.4880 N.ar    1  UNL1       -0.0757
     16 O         144.0023  137.9327  156.4663 O.2     1  UNL1       -0.3577
     17 C         139.4157  143.4991  162.1245 C.2     1  UNL1        0.0513
     18 O         138.0295  143.9878  161.8250 O.co2   1  UNL1       -0.5491
     19 O         140.5324  144.4821  162.3161 O.co2   1  UNL1       -0.5491
     20 C         139.3127  143.1061  165.3124 C.3     1  UNL1        0.0339
     21 C         140.7649  142.9593  165.6588 C.3     1  UNL1        0.1350
     22 O         141.8053  143.6725  164.8471 O.3     1  UNL1       -0.3800
     23 H         141.3735  144.1806  164.1426 H       1  UNL1        0.2108
     24 C         143.1874  139.2346  164.9461 C.ar    1  UNL1        0.1388
     25 C         143.5990  138.3747  166.1041 C.ar    1  UNL1        0.0384
     26 C         143.2031  138.7563  167.4997 C.ar    1  UNL1        0.0222
     27 C         142.3956  139.9978  167.7372 C.ar    1  UNL1        0.0814
     28 N         141.9997  140.3794  169.1328 N.ar    1  UNL1       -0.2415
     29 C         141.1922  141.6209  169.3704 C.ar    1  UNL1        0.1281
     30 C         140.7806  142.4809  168.2124 C.ar    1  UNL1        0.1575
     31 F         139.9731  143.7225  168.4499 F       1  UNL1       -0.2028
     32 C         141.1765  142.0993  166.8168 C.ar    1  UNL1        0.0348
     33 C         141.9840  140.8577  166.5792 C.ar    1  UNL1        0.0212
     34 C         142.3799  140.4761  165.1836 C.ar    1  UNL1        0.0382
     35 C         144.3208  139.8320  162.6859 C.3     1  UNL1        0.2525
     36 O         143.5833  138.8530  163.5505 O.3     1  UNL1       -0.4714
@<TRIPOS>UNITY_ATOM_ATTR
18 1
charge -1
@<TRIPOS>BOND
     1    35    36    1
     2    36    24    1
     3    24    25   ar
     4    25    26   ar
     5    26    27   ar
     6    27    28   ar
     7    28    29   ar
     8    29    30   ar
     9    30    31    1
    10    30    32   ar
    11    32    21    1
    12    21    22    1
    13    21    20    1
    14    20     1    1
    15     2     1    1
    16     2     3    1
    17     3     4    1
    18     4     5    1
    19     5     8    1
    20     8     9    1
    21     9    10    1
    22    10    12    1
    23    12    13   ar
    24    13    14   ar
    25    14    15   ar
    26    15    16   ar
    27    10    11    1
    28     5     6    1
    29     6     7    1
    30     7    17    1
    31    17    18   ar
    32    17    19   ar
    33    32    33   ar
    34    33    34   ar
    35    34    24   ar
    36    33    27   ar
    37     7     2    1
    38    11     8    1
    39    16    12   ar
    40    22    23    1
@<TRIPOS>MOLECULE
*****
 36 40 0 0 0
SMALL
GASTEIGER

@<TRIPOS>ATOM
      1 C         139.3709  142.9175  159.3235 C.3     1  UNL1        0.0033
      2 C         139.5883  142.8021  160.8031 C.3     1  UNL1        0.0080
      3 C         139.3617  141.4902  161.4944 C.3     1  UNL1        0.0177
      4 C         139.5791  141.3747  162.9740 C.3     1  UNL1        0.0721
      5 N         140.0229  142.5711  163.7625 N.3     1  UNL1       -0.2736
      6 C         140.2495  143.8829  163.0713 C.3     1  UNL1        0.0776
      7 C         140.0321  143.9985  161.5916 C.3     1  UNL1        0.0525
      8 C         140.2403  142.4557  165.2421 C.3     1  UNL1        0.0584
      9 C         140.0165  143.3564  166.4205 C.3     1  UNL1        0.0236
     10 C         140.5477  142.2924  167.3348 C.3     1  UNL1        0.0628
     11 C         140.7714  141.3917  166.1564 C.3     1  UNL1        0.0236
     12 C         140.7650  142.1770  168.8144 C.ar    1  UNL1        0.1541
     13 C         142.0790  142.3097  169.5256 C.ar    1  UNL1        0.0596
     14 C         141.8326  142.1233  170.9934 C.ar    1  UNL1        0.1435
     15 N         140.3663  141.8753  171.1894 N.ar    1  UNL1       -0.0757
     16 O         139.7065  141.9085  169.8427 O.2     1  UNL1       -0.3577
     17 C         140.2586  145.3103  160.9004 C.2     1  UNL1        0.0513
     18 O         141.4510  145.4921  160.0087 O.co2   1  UNL1       -0.5491
     19 O         139.2928  146.4403  161.1010 O.co2   1  UNL1       -0.5491
     20 C         140.2558  142.1649  158.3745 C.3     1  UNL1        0.0339
     21 C         141.7468  142.2372  158.5220 C.3     1  UNL1        0.1350
     22 O         142.5046  143.3866  157.9264 O.3     1  UNL1       -0.3800
     23 H         141.8850  143.9880  157.4846 H       1  UNL1        0.2108
     24 C         144.2363  143.2821  162.1221 C.ar    1  UNL1        0.1388
     25 C         144.9695  142.2050  162.8651 C.ar    1  UNL1        0.0384
     26 C         144.8729  140.7795  162.4082 C.ar    1  UNL1        0.0222
     27 C         144.0431  140.4312  161.2082 C.ar    1  UNL1        0.0814
     28 N         143.9465  139.0058  160.7513 N.ar    1  UNL1       -0.2415
     29 C         143.1167  138.6575  159.5513 C.ar    1  UNL1        0.1281
     30 C         142.3834  139.7346  158.8081 C.ar    1  UNL1        0.1575
     31 F         141.5536  139.3863  157.6081 F       1  UNL1       -0.2028
     32 C         142.4800  141.1600  159.2651 C.ar    1  UNL1        0.0348
     33 C         143.3099  141.5083  160.4652 C.ar    1  UNL1        0.0212
     34 C         143.4065  142.9338  160.9221 C.ar    1  UNL1        0.0382
     35 C         143.5769  145.1587  163.7935 C.3     1  UNL1        0.2525
     36 O         144.3329  144.7075  162.5790 O.3     1  UNL1       -0.4714
@<TRIPOS>UNITY_ATOM_ATTR
18 1
charge -1
@<TRIPOS>BOND
     1    35    36    1
     2    36    24    1
     3    24    25   ar
     4    25    26   ar
     5    26    27   ar
     6    27    28   ar
     7    28    29   ar
     8    29    30   ar
     9    30    31    1
    10    30    32   ar
    11    32    21    1
    12    21    22    1
    13    21    20    1
    14    20     1    1
    15     2     1    1
    16     2     3    1
    17     3     4    1
    18     4     5    1
    19     5     8    1
    20     8     9    1
    21     9    10    1
    22    10    12    1
    23    12    13   ar
    24    13    14   ar
    25    14    15   ar
    26    15    16   ar
    27    10    11    1
    28     5     6    1
    29     6     7    1
    30     7    17    1
    31    17    18   ar
    32    17    19   ar
    33    32    33   ar
    34    33    34   ar
    35    34    24   ar
    36    33    27   ar
    37     7     2    1
    38    11     8    1
    39    16    12   ar
    40    22    23    1
@<TRIPOS>MOLECULE
*****
 36 40 0 0 0
SMALL
GASTEIGER

@<TRIPOS>ATOM
      1 C         138.5500  138.1802  163.0274 C.3     1  UNL1        0.0033
      2 C         139.6039  138.6738  162.0811 C.3     1  UNL1        0.0080
      3 C         141.0064  138.1510  162.1815 C.3     1  UNL1        0.0177
      4 C         142.0603  138.6446  161.2352 C.3     1  UNL1        0.0721
      5 N         141.7119  139.6610  160.1885 N.3     1  UNL1       -0.2736
      6 C         140.3096  140.1838  160.0881 C.3     1  UNL1        0.0776
      7 C         139.2555  139.6902  161.0344 C.3     1  UNL1        0.0525
      8 C         142.7658  140.1546  159.2422 C.3     1  UNL1        0.0584
      9 C         143.6661  141.3532  159.1889 C.3     1  UNL1        0.0236
     10 C         144.2564  140.8528  157.9039 C.3     1  UNL1        0.0628
     11 C         143.3562  139.6542  157.9573 C.3     1  UNL1        0.0236
     12 C         145.3104  141.3464  156.9576 C.ar    1  UNL1        0.1541
     13 C         145.4220  140.9984  155.5029 C.ar    1  UNL1        0.0596
     14 C         146.6184  141.7116  154.9462 C.ar    1  UNL1        0.1435
     15 N         147.2462  142.5004  156.0568 N.ar    1  UNL1       -0.0757
     16 O         146.4378  142.2747  157.3000 O.2     1  UNL1       -0.3577
     17 C         137.8532  140.2129  160.9340 C.2     1  UNL1        0.0513
     18 O         136.9470  139.7243  159.8432 O.co2   1  UNL1       -0.5491
     19 O         137.3571  141.2244  161.9244 O.co2   1  UNL1       -0.5491
     20 C         138.7278  138.3567  164.5063 C.3     1  UNL1        0.0339
     21 C         138.6174  139.7221  165.1174 C.3     1  UNL1        0.1350
     22 O         137.5356  140.6593  164.6686 O.3     1  UNL1       -0.3800
     23 H         136.9994  140.2300  163.9838 H       1  UNL1        0.2108
     24 C         142.3789  141.9097  163.9704 C.ar    1  UNL1        0.1388
     25 C         143.3502  142.3379  165.0301 C.ar    1  UNL1        0.0384
     26 C         143.0677  142.0370  166.4722 C.ar    1  UNL1        0.0222
     27 C         141.8139  141.3078  166.8546 C.ar    1  UNL1        0.0814
     28 N         141.5314  141.0069  168.2967 N.ar    1  UNL1       -0.2415
     29 C         140.2776  140.2777  168.6790 C.ar    1  UNL1        0.1281
     30 C         139.3062  139.8494  167.6192 C.ar    1  UNL1        0.1575
     31 F         138.0524  139.1203  168.0016 F       1  UNL1       -0.2028
     32 C         139.5887  140.1504  166.1771 C.ar    1  UNL1        0.0348
     33 C         140.8426  140.8796  165.7948 C.ar    1  UNL1        0.0212
     34 C         141.1251  141.1805  164.3527 C.ar    1  UNL1        0.0382
     35 C         143.0305  143.6033  162.1111 C.3     1  UNL1        0.2525
     36 O         142.6614  142.2106  162.5283 O.3     1  UNL1       -0.4714
@<TRIPOS>UNITY_ATOM_ATTR
18 1
charge -1
@<TRIPOS>BOND
     1    35    36    1
     2    36    24    1
     3    24    25   ar
     4    25    26   ar
     5    26    27   ar
     6    27    28   ar
     7    28    29   ar
     8    29    30   ar
     9    30    31    1
    10    30    32   ar
    11    32    21    1
    12    21    22    1
    13    21    20    1
    14    20     1    1
    15     2     1    1
    16     2     3    1
    17     3     4    1
    18     4     5    1
    19     5     8    1
    20     8     9    1
    21     9    10    1
    22    10    12    1
    23    12    13   ar
    24    13    14   ar
    25    14    15   ar
    26    15    16   ar
    27    10    11    1
    28     5     6    1
    29     6     7    1
    30     7    17    1
    31    17    18   ar
    32    17    19   ar
    33    32    33   ar
    34    33    34   ar
    35    34    24   ar
    36    33    27   ar
    37     7     2    1
    38    11     8    1
    39    16    12   ar
    40    22    23    1
