@<TRIPOS>MOLECULE
*****
 39 42 0 0 0
SMALL
GASTEIGER

@<TRIPOS>ATOM
      1 N         143.2442  139.2200  163.3608 N.am    1  UNL1       -0.2797
      2 C         144.3595  139.8080  162.5481 C.3     1  UNL1        0.0956
      3 C         144.3770  139.1173  161.2168 C.3     1  UNL1        0.0505
      4 C         143.2724  138.1024  161.2065 C.3     1  UNL1        0.1507
      5 C         142.5723  138.1659  162.5316 C.2     1  UNL1        0.2435
      6 O         141.4053  137.3232  162.9534 O.2     1  UNL1       -0.2731
      7 C         142.0630  140.8609  164.9925 C.3     1  UNL1        0.0432
      8 C         141.6858  141.2574  166.3891 C.3     1  UNL1        0.0194
      9 C         142.1124  140.4094  167.5505 C.3     1  UNL1        0.0577
     10 C         142.9163  139.1651  167.3154 C.3     1  UNL1        0.0177
     11 C         143.2935  138.7686  165.9189 C.3     1  UNL1        0.0212
     12 C         142.8669  139.6165  164.7574 C.3     1  UNL1        0.0771
     13 N         141.7351  140.8060  168.9472 N.3     1  UNL1       -0.2741
     14 C         140.8611  139.9079  169.7716 C.3     1  UNL1        0.0896
     15 C         142.2318  142.1005  169.5193 C.3     1  UNL1        0.0576
     16 C         143.6994  142.3023  169.7550 C.3     1  UNL1        0.0173
     17 C         141.2610  143.1933  169.8559 C.3     1  UNL1        0.0173
     18 C         141.6364  141.7088  163.8310 C.3     1  UNL1        0.1525
     19 S         141.9027  143.1849  163.8422 S.O2    1  UNL1       -0.0100
     20 O         140.4286  143.4503  163.9230 O.2     1  UNL1       -0.1730
     21 O         143.3768  142.9196  163.7613 O.2     1  UNL1       -0.1730
     22 C         143.5721  145.1690  164.0062 C.3     1  UNL1        0.0271
     23 C         142.1690  144.6611  163.8534 C.3     1  UNL1        0.1509
     24 N         142.9284  137.1851  160.0707 N.am    1  UNL1       -0.2948
     25 C         142.5760  137.7534  158.7280 C.2     1  UNL1        0.2461
     26 O         142.5677  139.2391  158.5212 O.2     1  UNL1       -0.2701
     27 H         142.9339  136.2100  160.2064 H       1  UNL1        0.1501
     28 C         142.2320  136.8361  157.5921 C.ar    1  UNL1        0.0534
     29 C         141.1389  137.2062  156.6339 C.ar    1  UNL1        0.0045
     30 C         140.7949  136.2889  155.4980 C.ar    1  UNL1        0.0001
     31 C         141.5440  135.0015  155.3204 C.ar    1  UNL1        0.0000
     32 C         142.6371  134.6314  156.2787 C.ar    1  UNL1        0.0001
     33 C         142.9811  135.5487  157.4145 C.ar    1  UNL1        0.0045
     34 C         143.3861  133.3440  156.1010 C.ar    1  UNL1        0.0000
     35 C         144.3625  132.8939  157.1470 C.ar    1  UNL1        0.0000
     36 C         145.1116  131.6065  156.9694 C.ar    1  UNL1        0.0000
     37 C         144.8842  130.7692  155.7458 C.ar    1  UNL1        0.0000
     38 C         143.9078  131.2193  154.6998 C.ar    1  UNL1        0.0000
     39 C         143.1588  132.5067  154.8774 C.ar    1  UNL1        0.0000
@<TRIPOS>BOND
     1    22    23    1
     2    23    19    1
     3    19    20    2
     4    19    21    2
     5    19    18    1
     6     7    18    1
     7     7     8    1
     8     8     9    1
     9     9    13    1
    10    13    14    1
    11    13    15    1
    12    15    16    1
    13    15    17    1
    14     9    10    1
    15    10    11    1
    16    11    12    1
    17    12     1    1
    18     1     2    1
    19     2     3    1
    20     3     4    1
    21     4    24    1
    22    24    25   am
    23    25    26    2
    24    25    28    1
    25    28    29   ar
    26    29    30   ar
    27    30    31   ar
    28    31    32   ar
    29    32    34    1
    30    34    35   ar
    31    35    36   ar
    32    36    37   ar
    33    37    38   ar
    34    38    39   ar
    35    32    33   ar
    36     4     5    1
    37     5     6    2
    38    12     7    1
    39     5     1   am
    40    33    28   ar
    41    39    34   ar
    42    24    27    1
@<TRIPOS>MOLECULE
*****
 39 42 0 0 0
SMALL
GASTEIGER

@<TRIPOS>ATOM
      1 N         143.1824  139.0479  163.4050 N.am    1  UNL1       -0.2797
      2 C         144.2840  139.6951  162.6192 C.3     1  UNL1        0.0956
      3 C         144.3122  139.0676  161.2570 C.3     1  UNL1        0.0505
      4 C         143.2279  138.0325  161.2010 C.3     1  UNL1        0.1507
      5 C         142.5297  138.0204  162.5285 C.2     1  UNL1        0.2435
      6 O         141.3805  137.1360  162.9122 O.2     1  UNL1       -0.2731
      7 C         141.8028  140.4565  165.0970 C.3     1  UNL1        0.0432
      8 C         141.4209  140.7799  166.5110 C.3     1  UNL1        0.0194
      9 C         142.0367  140.0183  167.6471 C.3     1  UNL1        0.0577
     10 C         143.0344  138.9332  167.3692 C.3     1  UNL1        0.0177
     11 C         143.4162  138.6098  165.9552 C.3     1  UNL1        0.0212
     12 C         142.8005  139.3714  164.8191 C.3     1  UNL1        0.0771
     13 N         141.6548  140.3418  169.0612 N.3     1  UNL1       -0.2741
     14 C         142.5429  139.9185  170.1935 C.3     1  UNL1        0.0896
     15 C         140.3848  141.0886  169.3430 C.3     1  UNL1        0.0576
     16 C         140.4048  142.5836  169.4638 C.3     1  UNL1        0.0173
     17 C         139.0947  140.3404  169.5039 C.3     1  UNL1        0.0173
     18 C         141.1870  141.2181  163.9609 C.3     1  UNL1        0.1525
     19 S         139.7082  141.4680  163.9398 S.O2    1  UNL1       -0.0100
     20 O         139.9512  142.9271  164.1889 O.2     1  UNL1       -0.1730
     21 O         139.4652  140.0090  163.6906 O.2     1  UNL1       -0.1730
     22 C         137.6853  143.0387  164.3767 C.3     1  UNL1        0.0271
     23 C         138.2293  141.7180  163.9186 C.3     1  UNL1        0.1509
     24 N         142.8995  137.1624  160.0241 N.am    1  UNL1       -0.2948
     25 C         142.5415  137.7856  158.7075 C.2     1  UNL1        0.2461
     26 O         142.5117  139.2788  158.5678 O.2     1  UNL1       -0.2701
     27 H         142.9191  136.1824  160.1158 H       1  UNL1        0.1501
     28 C         142.2131  136.9155  157.5306 C.ar    1  UNL1        0.0534
     29 C         141.1607  137.3441  156.5515 C.ar    1  UNL1        0.0045
     30 C         140.8323  136.4740  155.3745 C.ar    1  UNL1        0.0001
     31 C         141.5564  135.1753  155.1768 C.ar    1  UNL1        0.0000
     32 C         142.6089  134.7467  156.1559 C.ar    1  UNL1        0.0001
     33 C         142.9372  135.6168  157.3328 C.ar    1  UNL1        0.0045
     34 C         143.3329  133.4480  155.9581 C.ar    1  UNL1        0.0000
     35 C         144.3793  133.0152  156.9420 C.ar    1  UNL1        0.0000
     36 C         145.1033  131.7165  156.7442 C.ar    1  UNL1        0.0000
     37 C         144.7811  130.8505  155.5626 C.ar    1  UNL1        0.0000
     38 C         143.7348  131.2832  154.5788 C.ar    1  UNL1        0.0000
     39 C         143.0107  132.5820  154.7765 C.ar    1  UNL1        0.0000
@<TRIPOS>BOND
     1    22    23    1
     2    23    19    1
     3    19    20    2
     4    19    21    2
     5    19    18    1
     6     7    18    1
     7     7     8    1
     8     8     9    1
     9     9    13    1
    10    13    14    1
    11    13    15    1
    12    15    16    1
    13    15    17    1
    14     9    10    1
    15    10    11    1
    16    11    12    1
    17    12     1    1
    18     1     2    1
    19     2     3    1
    20     3     4    1
    21     4    24    1
    22    24    25   am
    23    25    26    2
    24    25    28    1
    25    28    29   ar
    26    29    30   ar
    27    30    31   ar
    28    31    32   ar
    29    32    34    1
    30    34    35   ar
    31    35    36   ar
    32    36    37   ar
    33    37    38   ar
    34    38    39   ar
    35    32    33   ar
    36     4     5    1
    37     5     6    2
    38    12     7    1
    39     5     1   am
    40    33    28   ar
    41    39    34   ar
    42    24    27    1
@<TRIPOS>MOLECULE
*****
 39 42 0 0 0
SMALL
GASTEIGER

@<TRIPOS>ATOM
      1 N         140.8423  139.8948  162.3622 N.am    1  UNL1       -0.2797
      2 C         140.4530  141.0076  161.4348 C.3     1  UNL1        0.0956
      3 C         140.5194  140.4852  160.0303 C.3     1  UNL1        0.0505
      4 C         140.9498  139.0494  160.0897 C.3     1  UNL1        0.1507
      5 C         141.1494  138.6846  161.5309 C.2     1  UNL1        0.2435
      6 O         141.5803  137.3448  162.0497 O.2     1  UNL1       -0.2731
      7 C         142.0895  140.6318  164.5190 C.3     1  UNL1        0.0432
      8 C         142.1594  140.7147  166.0150 C.3     1  UNL1        0.0194
      9 C         141.0523  140.1433  166.8504 C.3     1  UNL1        0.0577
     10 C         139.8753  139.4892  166.1898 C.3     1  UNL1        0.0177
     11 C         139.8053  139.4063  164.6937 C.3     1  UNL1        0.0212
     12 C         140.9124  139.9777  163.8583 C.3     1  UNL1        0.0771
     13 N         141.1224  140.2262  168.3466 N.3     1  UNL1       -0.2741
     14 C         142.1339  139.4108  169.0963 C.3     1  UNL1        0.0896
     15 C         140.1810  141.1243  169.0929 C.3     1  UNL1        0.0576
     16 C         140.3502  142.6131  169.0221 C.3     1  UNL1        0.0173
     17 C         139.0702  140.5338  169.9099 C.3     1  UNL1        0.0173
     18 C         143.1966  141.2032  163.6836 C.3     1  UNL1        0.1525
     19 S         143.7015  142.5895  163.9542 S.O2    1  UNL1       -0.0100
     20 O         145.0270  142.0252  164.3718 O.2     1  UNL1       -0.1730
     21 O         142.3759  143.1538  163.5366 O.2     1  UNL1       -0.1730
     22 C         143.5783  145.1507  163.5355 C.3     1  UNL1        0.0271
     23 C         144.2065  143.9758  164.2248 C.3     1  UNL1        0.1509
     24 N         141.1461  138.1385  158.9143 N.am    1  UNL1       -0.2948
     25 C         142.4771  138.0797  158.2251 C.2     1  UNL1        0.2461
     26 O         143.6118  138.9318  158.7114 O.2     1  UNL1       -0.2701
     27 H         140.4014  137.5792  158.5951 H       1  UNL1        0.1501
     28 C         142.6735  137.1687  157.0497 C.ar    1  UNL1        0.0534
     29 C         142.3881  137.6625  155.6623 C.ar    1  UNL1        0.0045
     30 C         142.5844  136.7516  154.4868 C.ar    1  UNL1        0.0001
     31 C         143.0661  135.3469  154.6988 C.ar    1  UNL1        0.0000
     32 C         143.3515  134.8532  156.0862 C.ar    1  UNL1        0.0001
     33 C         143.1552  135.7641  157.2616 C.ar    1  UNL1        0.0045
     34 C         143.8332  133.4485  156.2981 C.ar    1  UNL1        0.0000
     35 C         144.4480  133.0562  157.6088 C.ar    1  UNL1        0.0000
     36 C         144.9297  131.6515  157.8208 C.ar    1  UNL1        0.0000
     37 C         144.7966  130.6391  156.7220 C.ar    1  UNL1        0.0000
     38 C         144.1817  131.0314  155.4112 C.ar    1  UNL1        0.0000
     39 C         143.7000  132.4361  155.1993 C.ar    1  UNL1        0.0000
@<TRIPOS>BOND
     1    22    23    1
     2    23    19    1
     3    19    20    2
     4    19    21    2
     5    19    18    1
     6     7    18    1
     7     7     8    1
     8     8     9    1
     9     9    13    1
    10    13    14    1
    11    13    15    1
    12    15    16    1
    13    15    17    1
    14     9    10    1
    15    10    11    1
    16    11    12    1
    17    12     1    1
    18     1     2    1
    19     2     3    1
    20     3     4    1
    21     4    24    1
    22    24    25   am
    23    25    26    2
    24    25    28    1
    25    28    29   ar
    26    29    30   ar
    27    30    31   ar
    28    31    32   ar
    29    32    34    1
    30    34    35   ar
    31    35    36   ar
    32    36    37   ar
    33    37    38   ar
    34    38    39   ar
    35    32    33   ar
    36     4     5    1
    37     5     6    2
    38    12     7    1
    39     5     1   am
    40    33    28   ar
    41    39    34   ar
    42    24    27    1
@<TRIPOS>MOLECULE
*****
 39 42 0 0 0
SMALL
GASTEIGER

@<TRIPOS>ATOM
      1 N         142.6864  141.9765  162.5300 N.am    1  UNL1       -0.2797
      2 C         143.8639  141.8159  161.6148 C.3     1  UNL1        0.0956
      3 C         143.4180  142.1512  160.2225 C.3     1  UNL1        0.0505
      4 C         141.9648  142.5191  160.2771 C.3     1  UNL1        0.1507
      5 C         141.5127  142.4111  161.7032 C.2     1  UNL1        0.2435
      6 O         140.1296  142.6890  162.2131 O.2     1  UNL1       -0.2731
      7 C         142.2755  140.4082  164.5602 C.3     1  UNL1        0.0432
      8 C         142.2722  140.1753  166.0420 C.3     1  UNL1        0.0194
      9 C         142.6766  141.2776  166.9754 C.3     1  UNL1        0.0577
     10 C         143.0842  142.6130  166.4270 C.3     1  UNL1        0.0177
     11 C         143.0875  142.8459  164.9453 C.3     1  UNL1        0.0212
     12 C         142.6831  141.7435  164.0119 C.3     1  UNL1        0.0771
     13 N         142.6733  141.0446  168.4572 N.3     1  UNL1       -0.2741
     14 C         142.4770  139.6594  168.9982 C.3     1  UNL1        0.0896
     15 C         142.8663  142.1968  169.3980 C.3     1  UNL1        0.0576
     16 C         141.6882  143.0202  169.8273 C.3     1  UNL1        0.0173
     17 C         144.2375  142.5257  169.9097 C.3     1  UNL1        0.0173
     18 C         141.8711  139.3059  163.6268 C.3     1  UNL1        0.1525
     19 S         140.6249  138.5153  163.8950 S.O2    1  UNL1       -0.0100
     20 O         139.7916  139.7225  163.5814 O.2     1  UNL1       -0.1730
     21 O         141.4582  137.3082  164.2086 O.2     1  UNL1       -0.1730
     22 C         138.6736  137.8600  165.4803 C.3     1  UNL1        0.0271
     23 C         139.3786  137.7248  164.1633 C.3     1  UNL1        0.1509
     24 N         141.1133  142.9238  159.1104 N.am    1  UNL1       -0.2948
     25 C         140.9919  144.3715  158.7370 C.2     1  UNL1        0.2461
     26 O         141.7221  145.4144  159.5302 O.2     1  UNL1       -0.2701
     27 H         140.6340  142.2393  158.5898 H       1  UNL1        0.1501
     28 C         140.1404  144.7762  157.5703 C.ar    1  UNL1        0.0534
     29 C         139.3116  143.7507  156.8552 C.ar    1  UNL1        0.0045
     30 C         138.4600  144.1554  155.6885 C.ar    1  UNL1        0.0001
     31 C         138.4374  145.5857  155.2370 C.ar    1  UNL1        0.0000
     32 C         139.2662  146.6112  155.9521 C.ar    1  UNL1        0.0001
     33 C         140.1177  146.2065  157.1188 C.ar    1  UNL1        0.0045
     34 C         139.2435  148.0415  155.5006 C.ar    1  UNL1        0.0000
     35 C         138.5385  149.0772  156.3253 C.ar    1  UNL1        0.0000
     36 C         138.5158  150.5075  155.8737 C.ar    1  UNL1        0.0000
     37 C         139.1981  150.9020  154.5975 C.ar    1  UNL1        0.0000
     38 C         139.9032  149.8662  153.7728 C.ar    1  UNL1        0.0000
     39 C         139.9259  148.4360  154.2243 C.ar    1  UNL1        0.0000
@<TRIPOS>BOND
     1    22    23    1
     2    23    19    1
     3    19    20    2
     4    19    21    2
     5    19    18    1
     6     7    18    1
     7     7     8    1
     8     8     9    1
     9     9    13    1
    10    13    14    1
    11    13    15    1
    12    15    16    1
    13    15    17    1
    14     9    10    1
    15    10    11    1
    16    11    12    1
    17    12     1    1
    18     1     2    1
    19     2     3    1
    20     3     4    1
    21     4    24    1
    22    24    25   am
    23    25    26    2
    24    25    28    1
    25    28    29   ar
    26    29    30   ar
    27    30    31   ar
    28    31    32   ar
    29    32    34    1
    30    34    35   ar
    31    35    36   ar
    32    36    37   ar
    33    37    38   ar
    34    38    39   ar
    35    32    33   ar
    36     4     5    1
    37     5     6    2
    38    12     7    1
    39     5     1   am
    40    33    28   ar
    41    39    34   ar
    42    24    27    1
@<TRIPOS>MOLECULE
*****
 39 42 0 0 0
SMALL
GASTEIGER

@<TRIPOS>ATOM
      1 N         141.5540  139.1869  163.9856 N.am    1  UNL1       -0.2797
      2 C         140.3074  138.4539  163.5869 C.3     1  UNL1        0.0956
      3 C         140.5200  137.8914  162.2128 C.3     1  UNL1        0.0505
      4 C         141.8979  138.2766  161.7621 C.3     1  UNL1        0.1507
      5 C         142.5369  139.0773  162.8579 C.2     1  UNL1        0.2435
      6 O         143.9166  139.6651  162.8306 O.2     1  UNL1       -0.2731
      7 C         141.4961  141.3731  165.3882 C.3     1  UNL1        0.0432
      8 C         141.7203  142.0897  166.6867 C.3     1  UNL1        0.0194
      9 C         142.2267  141.3368  167.8811 C.3     1  UNL1        0.0577
     10 C         142.5089  139.8673  167.7771 C.3     1  UNL1        0.0177
     11 C         142.2846  139.1507  166.4786 C.3     1  UNL1        0.0212
     12 C         141.7782  139.9036  165.2842 C.3     1  UNL1        0.0771
     13 N         142.4510  142.0535  169.1797 N.3     1  UNL1       -0.2741
     14 C         143.8460  142.3753  169.6275 C.3     1  UNL1        0.0896
     15 C         141.2804  142.4484  170.0303 C.3     1  UNL1        0.0576
     16 C         140.6252  143.7831  169.8316 C.3     1  UNL1        0.0173
     17 C         140.7648  141.5086  171.0796 C.3     1  UNL1        0.0173
     18 C         140.9896  142.1260  164.1938 C.3     1  UNL1        0.1525
     19 S         141.5693  143.4662  163.8509 S.O2    1  UNL1       -0.0100
     20 O         142.8423  142.8039  163.4141 O.2     1  UNL1       -0.1730
     21 O         140.2964  144.1286  164.2877 O.2     1  UNL1       -0.1730
     22 C         143.5767  145.1157  163.8493 C.3     1  UNL1        0.0271
     23 C         142.1491  144.8065  163.5080 C.3     1  UNL1        0.1509
     24 N         142.5264  137.9233  160.4468 N.am    1  UNL1       -0.2948
     25 C         142.0895  138.6240  159.1946 C.2     1  UNL1        0.2461
     26 O         141.0241  139.6781  159.2577 O.2     1  UNL1       -0.2701
     27 H         143.2256  137.2315  160.4054 H       1  UNL1        0.1501
     28 C         142.7180  138.2706  157.8793 C.ar    1  UNL1        0.0534
     29 C         143.3900  139.3323  157.0599 C.ar    1  UNL1        0.0045
     30 C         144.0186  138.9789  155.7445 C.ar    1  UNL1        0.0001
     31 C         143.9750  137.5639  155.2486 C.ar    1  UNL1        0.0000
     32 C         143.3029  136.5023  156.0679 C.ar    1  UNL1        0.0001
     33 C         142.6745  136.8557  157.3833 C.ar    1  UNL1        0.0045
     34 C         143.2594  135.0873  155.5719 C.ar    1  UNL1        0.0000
     35 C         143.9462  134.0004  156.3444 C.ar    1  UNL1        0.0000
     36 C         143.9027  132.5854  155.8484 C.ar    1  UNL1        0.0000
     37 C         143.1723  132.2574  154.5800 C.ar    1  UNL1        0.0000
     38 C         142.4854  133.3444  153.8075 C.ar    1  UNL1        0.0000
     39 C         142.5290  134.7593  154.3035 C.ar    1  UNL1        0.0000
@<TRIPOS>BOND
     1    22    23    1
     2    23    19    1
     3    19    20    2
     4    19    21    2
     5    19    18    1
     6     7    18    1
     7     7     8    1
     8     8     9    1
     9     9    13    1
    10    13    14    1
    11    13    15    1
    12    15    16    1
    13    15    17    1
    14     9    10    1
    15    10    11    1
    16    11    12    1
    17    12     1    1
    18     1     2    1
    19     2     3    1
    20     3     4    1
    21     4    24    1
    22    24    25   am
    23    25    26    2
    24    25    28    1
    25    28    29   ar
    26    29    30   ar
    27    30    31   ar
    28    31    32   ar
    29    32    34    1
    30    34    35   ar
    31    35    36   ar
    32    36    37   ar
    33    37    38   ar
    34    38    39   ar
    35    32    33   ar
    36     4     5    1
    37     5     6    2
    38    12     7    1
    39     5     1   am
    40    33    28   ar
    41    39    34   ar
    42    24    27    1
@<TRIPOS>MOLECULE
*****
 39 42 0 0 0
SMALL
GASTEIGER

@<TRIPOS>ATOM
      1 N         141.6427  140.1738  162.6215 N.am    1  UNL1       -0.2797
      2 C         141.7138  141.2704  161.6006 C.3     1  UNL1        0.0956
      3 C         141.7198  140.6379  160.2405 C.3     1  UNL1        0.0505
      4 C         141.6524  139.1503  160.4208 C.3     1  UNL1        0.1507
      5 C         141.6047  138.8635  161.8923 C.2     1  UNL1        0.2435
      6 O         141.5319  137.5049  162.5239 O.2     1  UNL1       -0.2731
      7 C         140.4581  141.0574  164.7583 C.3     1  UNL1        0.0432
      8 C         140.4299  141.2391  166.2470 C.3     1  UNL1        0.0194
      9 C         141.5581  140.7189  167.0875 C.3     1  UNL1        0.0577
     10 C         142.7145  140.0170  166.4394 C.3     1  UNL1        0.0177
     11 C         142.7427  139.8353  164.9508 C.3     1  UNL1        0.0212
     12 C         141.6145  140.3555  164.1102 C.3     1  UNL1        0.0771
     13 N         141.5299  140.9007  168.5763 N.3     1  UNL1       -0.2741
     14 C         141.0028  139.8057  169.4556 C.3     1  UNL1        0.0896
     15 C         142.0288  142.1773  169.1856 C.3     1  UNL1        0.0576
     16 C         143.4997  142.3832  169.3963 C.3     1  UNL1        0.0173
     17 C         141.0570  143.2481  169.5842 C.3     1  UNL1        0.0173
     18 C         139.3299  141.5776  163.9178 C.3     1  UNL1        0.1525
     19 S         138.7288  142.9191  164.2163 S.O2    1  UNL1       -0.0100
     20 O         140.0245  143.5808  163.8515 O.2     1  UNL1       -0.1730
     21 O         137.4331  142.2573  164.5811 O.2     1  UNL1       -0.1730
     22 C         138.5850  145.0372  165.7139 C.3     1  UNL1        0.0271
     23 C         138.1278  144.2606  164.5148 C.3     1  UNL1        0.1509
     24 N         141.6356  138.1288  159.3225 N.am    1  UNL1       -0.2948
     25 C         142.7558  138.0804  158.3261 C.2     1  UNL1        0.2461
     26 O         143.8929  139.0534  158.4282 O.2     1  UNL1       -0.2701
     27 H         140.8893  137.4902  159.2555 H       1  UNL1        0.1501
     28 C         142.7390  137.0590  157.2278 C.ar    1  UNL1        0.0534
     29 C         142.3785  137.4667  155.8300 C.ar    1  UNL1        0.0045
     30 C         142.3617  136.4452  154.7315 C.ar    1  UNL1        0.0001
     31 C         142.7054  135.0162  155.0311 C.ar    1  UNL1        0.0000
     32 C         143.0659  134.6085  156.4289 C.ar    1  UNL1        0.0001
     33 C         143.0827  135.6299  157.5272 C.ar    1  UNL1        0.0045
     34 C         143.4095  133.1794  156.7283 C.ar    1  UNL1        0.0000
     35 C         142.5890  132.0712  156.1380 C.ar    1  UNL1        0.0000
     36 C         142.9326  130.6421  156.4375 C.ar    1  UNL1        0.0000
     37 C         144.0968  130.3213  157.3272 C.ar    1  UNL1        0.0000
     38 C         144.9174  131.4295  157.9175 C.ar    1  UNL1        0.0000
     39 C         144.5737  132.8586  157.6181 C.ar    1  UNL1        0.0000
@<TRIPOS>BOND
     1    22    23    1
     2    23    19    1
     3    19    20    2
     4    19    21    2
     5    19    18    1
     6     7    18    1
     7     7     8    1
     8     8     9    1
     9     9    13    1
    10    13    14    1
    11    13    15    1
    12    15    16    1
    13    15    17    1
    14     9    10    1
    15    10    11    1
    16    11    12    1
    17    12     1    1
    18     1     2    1
    19     2     3    1
    20     3     4    1
    21     4    24    1
    22    24    25   am
    23    25    26    2
    24    25    28    1
    25    28    29   ar
    26    29    30   ar
    27    30    31   ar
    28    31    32   ar
    29    32    34    1
    30    34    35   ar
    31    35    36   ar
    32    36    37   ar
    33    37    38   ar
    34    38    39   ar
    35    32    33   ar
    36     4     5    1
    37     5     6    2
    38    12     7    1
    39     5     1   am
    40    33    28   ar
    41    39    34   ar
    42    24    27    1
@<TRIPOS>MOLECULE
*****
 39 42 0 0 0
SMALL
GASTEIGER

@<TRIPOS>ATOM
      1 N         139.1049  139.3879  163.0765 N.am    1  UNL1       -0.2797
      2 C         137.9823  139.8338  162.1872 C.3     1  UNL1        0.0956
      3 C         138.3449  139.4872  160.7736 C.3     1  UNL1        0.0505
      4 C         139.6917  138.8269  160.7892 C.3     1  UNL1        0.1507
      5 C         140.1614  138.7655  162.2125 C.2     1  UNL1        0.2435
      6 O         141.4596  138.1839  162.6882 O.2     1  UNL1       -0.2731
      7 C         139.7601  140.7715  165.1756 C.3     1  UNL1        0.0432
      8 C         139.8163  140.9214  166.6670 C.3     1  UNL1        0.0194
      9 C         139.2736  139.8377  167.5508 C.3     1  UNL1        0.0577
     10 C         138.6747  138.6040  166.9431 C.3     1  UNL1        0.0177
     11 C         138.6184  138.4541  165.4517 C.3     1  UNL1        0.0212
     12 C         139.1611  139.5378  164.5680 C.3     1  UNL1        0.0771
     13 N         139.3299  139.9877  169.0422 N.3     1  UNL1       -0.2741
     14 C         138.0733  139.8823  169.8545 C.3     1  UNL1        0.0896
     15 C         140.6428  140.2430  169.7213 C.3     1  UNL1        0.0576
     16 C         141.8605  139.4665  169.3159 C.3     1  UNL1        0.0173
     17 C         140.7380  141.2748  170.8059 C.3     1  UNL1        0.0173
     18 C         140.3028  141.8552  164.2919 C.3     1  UNL1        0.1525
     19 S         139.7745  143.2541  164.4099 S.O2    1  UNL1       -0.0100
     20 O         141.0503  143.6799  165.0738 O.2     1  UNL1       -0.1730
     21 O         138.4986  142.8283  163.7460 O.2     1  UNL1       -0.1730
     22 C         138.4919  145.0688  165.7560 C.3     1  UNL1        0.0271
     23 C         139.2462  144.6531  164.5279 C.3     1  UNL1        0.1509
     24 N         140.4379  138.3175  159.5918 N.am    1  UNL1       -0.2948
     25 C         141.6542  139.0450  159.1007 C.2     1  UNL1        0.2461
     26 O         142.1244  140.2820  159.8069 O.2     1  UNL1       -0.2701
     27 H         140.1293  137.5056  159.1283 H       1  UNL1        0.1501
     28 C         142.4003  138.5356  157.9033 C.ar    1  UNL1        0.0534
     29 C         143.1273  139.4952  157.0086 C.ar    1  UNL1        0.0045
     30 C         143.8735  138.9858  155.8111 C.ar    1  UNL1        0.0001
     31 C         143.8925  137.5167  155.5085 C.ar    1  UNL1        0.0000
     32 C         143.1654  136.5571  156.4032 C.ar    1  UNL1        0.0001
     33 C         142.4193  137.0666  157.6006 C.ar    1  UNL1        0.0045
     34 C         143.1844  135.0881  156.1005 C.ar    1  UNL1        0.0000
     35 C         143.5692  134.1073  157.1681 C.ar    1  UNL1        0.0000
     36 C         143.5882  132.6382  156.8654 C.ar    1  UNL1        0.0000
     37 C         143.2224  132.1500  155.4951 C.ar    1  UNL1        0.0000
     38 C         142.8376  133.1309  154.4275 C.ar    1  UNL1        0.0000
     39 C         142.8186  134.5999  154.7302 C.ar    1  UNL1        0.0000
@<TRIPOS>BOND
     1    22    23    1
     2    23    19    1
     3    19    20    2
     4    19    21    2
     5    19    18    1
     6     7    18    1
     7     7     8    1
     8     8     9    1
     9     9    13    1
    10    13    14    1
    11    13    15    1
    12    15    16    1
    13    15    17    1
    14     9    10    1
    15    10    11    1
    16    11    12    1
    17    12     1    1
    18     1     2    1
    19     2     3    1
    20     3     4    1
    21     4    24    1
    22    24    25   am
    23    25    26    2
    24    25    28    1
    25    28    29   ar
    26    29    30   ar
    27    30    31   ar
    28    31    32   ar
    29    32    34    1
    30    34    35   ar
    31    35    36   ar
    32    36    37   ar
    33    37    38   ar
    34    38    39   ar
    35    32    33   ar
    36     4     5    1
    37     5     6    2
    38    12     7    1
    39     5     1   am
    40    33    28   ar
    41    39    34   ar
    42    24    27    1
@<TRIPOS>MOLECULE
*****
 39 42 0 0 0
SMALL
GASTEIGER

@<TRIPOS>ATOM
      1 N         143.2789  142.9397  164.1938 N.am    1  UNL1       -0.2797
      2 C         143.8713  144.2366  163.7276 C.3     1  UNL1        0.0956
      3 C         144.4668  144.0124  162.3693 C.3     1  UNL1        0.0505
      4 C         144.2426  142.5770  161.9960 C.3     1  UNL1        0.1507
      5 C         143.5084  141.9141  163.1236 C.2     1  UNL1        0.2435
      6 O         143.0791  140.4776  163.1724 O.2     1  UNL1       -0.2731
      7 C         141.0809  142.7029  165.5587 C.3     1  UNL1        0.0432
      8 C         140.3819  142.4722  166.8656 C.3     1  UNL1        0.0194
      9 C         141.1817  142.2476  168.1145 C.3     1  UNL1        0.0577
     10 C         142.6805  142.2538  168.0566 C.3     1  UNL1        0.0177
     11 C         143.3796  142.4845  166.7497 C.3     1  UNL1        0.0212
     12 C         142.5798  142.7090  165.5007 C.3     1  UNL1        0.0771
     13 N         140.4825  142.0169  169.4215 N.3     1  UNL1       -0.2741
     14 C         140.1758  143.1760  170.3228 C.3     1  UNL1        0.0896
     15 C         140.0902  140.6271  169.8271 C.3     1  UNL1        0.0576
     16 C         138.6404  140.2663  169.9619 C.3     1  UNL1        0.0173
     17 C         141.1475  139.5981  170.0978 C.3     1  UNL1        0.0173
     18 C         140.2812  142.9274  164.3097 C.3     1  UNL1        0.1525
     19 S         139.1539  142.0002  163.9641 S.O2    1  UNL1       -0.0100
     20 O         140.0901  140.8312  164.0469 O.2     1  UNL1       -0.1730
     21 O         138.2177  143.1692  163.8812 O.2     1  UNL1       -0.1730
     22 C         137.4175  141.1109  162.2483 C.3     1  UNL1        0.0271
     23 C         138.0267  141.0728  163.6184 C.3     1  UNL1        0.1509
     24 N         144.6764  141.9199  160.7192 N.am    1  UNL1       -0.2948
     25 C         143.9883  142.2585  159.4301 C.2     1  UNL1        0.2461
     26 O         142.8664  143.2541  159.4177 O.2     1  UNL1       -0.2701
     27 H         145.4127  141.2664  160.7274 H       1  UNL1        0.1501
     28 C         144.4220  141.6014  158.1534 C.ar    1  UNL1        0.0534
     29 C         143.7761  140.3218  157.7113 C.ar    1  UNL1        0.0045
     30 C         144.2099  139.6647  156.4345 C.ar    1  UNL1        0.0001
     31 C         145.2896  140.2872  155.5999 C.ar    1  UNL1        0.0000
     32 C         145.9355  141.5668  156.0419 C.ar    1  UNL1        0.0001
     33 C         145.5018  142.2239  157.3187 C.ar    1  UNL1        0.0045
     34 C         147.0153  142.1893  155.2072 C.ar    1  UNL1        0.0000
     35 C         148.4003  141.6137  155.2217 C.ar    1  UNL1        0.0000
     36 C         149.4800  142.2362  154.3870 C.ar    1  UNL1        0.0000
     37 C         149.1747  143.4344  153.5378 C.ar    1  UNL1        0.0000
     38 C         147.7897  144.0100  153.5233 C.ar    1  UNL1        0.0000
     39 C         146.7099  143.3875  154.3580 C.ar    1  UNL1        0.0000
@<TRIPOS>BOND
     1    22    23    1
     2    23    19    1
     3    19    20    2
     4    19    21    2
     5    19    18    1
     6     7    18    1
     7     7     8    1
     8     8     9    1
     9     9    13    1
    10    13    14    1
    11    13    15    1
    12    15    16    1
    13    15    17    1
    14     9    10    1
    15    10    11    1
    16    11    12    1
    17    12     1    1
    18     1     2    1
    19     2     3    1
    20     3     4    1
    21     4    24    1
    22    24    25   am
    23    25    26    2
    24    25    28    1
    25    28    29   ar
    26    29    30   ar
    27    30    31   ar
    28    31    32   ar
    29    32    34    1
    30    34    35   ar
    31    35    36   ar
    32    36    37   ar
    33    37    38   ar
    34    38    39   ar
    35    32    33   ar
    36     4     5    1
    37     5     6    2
    38    12     7    1
    39     5     1   am
    40    33    28   ar
    41    39    34   ar
    42    24    27    1
@<TRIPOS>MOLECULE
*****
 39 42 0 0 0
SMALL
GASTEIGER

@<TRIPOS>ATOM
      1 N         142.8338  139.7831  160.2699 N.am    1  UNL1       -0.2797
      2 C         142.7352  140.8643  159.2348 C.3     1  UNL1        0.0956
      3 C         142.7411  140.2139  157.8832 C.3     1  UNL1        0.0505
      4 C         142.8434  138.7307  158.0828 C.3     1  UNL1        0.1507
      5 C         142.9007  138.4645  159.5579 C.2     1  UNL1        0.2435
      6 O         143.0063  137.1164  160.2071 O.2     1  UNL1       -0.2731
      7 C         141.6052  139.8154  162.5589 C.3     1  UNL1        0.0432
      8 C         141.6322  140.0174  164.0449 C.3     1  UNL1        0.0194
      9 C         142.9148  140.3890  164.7281 C.3     1  UNL1        0.0577
     10 C         144.1704  140.5586  163.9253 C.3     1  UNL1        0.0177
     11 C         144.1434  140.3567  162.4392 C.3     1  UNL1        0.0212
     12 C         142.8608  139.9851  161.7560 C.3     1  UNL1        0.0771
     13 N         142.9418  140.5909  166.2143 N.3     1  UNL1       -0.2741
     14 C         142.8911  141.9777  166.7838 C.3     1  UNL1        0.0896
     15 C         143.0196  139.4061  167.1309 C.3     1  UNL1        0.0576
     16 C         143.6207  138.1204  166.6454 C.3     1  UNL1        0.0173
     17 C         142.4963  139.5070  168.5330 C.3     1  UNL1        0.0173
     18 C         140.3225  139.4438  161.8757 C.3     1  UNL1        0.1525
     19 S         139.0326  140.0763  162.3068 S.O2    1  UNL1       -0.0100
     20 O         138.5778  138.7635  162.8720 O.2     1  UNL1       -0.1730
     21 O         139.4874  141.3892  161.7416 O.2     1  UNL1       -0.1730
     22 C         137.7600  141.9717  163.5470 C.3     1  UNL1        0.0271
     23 C         137.7425  140.7088  162.7379 C.3     1  UNL1        0.1509
     24 N         142.8817  137.6956  156.9980 N.am    1  UNL1       -0.2948
     25 C         141.6079  137.0669  156.5159 C.2     1  UNL1        0.2461
     26 O         140.2959  137.4734  157.1187 O.2     1  UNL1       -0.2701
     27 H         143.7428  137.4288  156.6023 H       1  UNL1        0.1501
     28 C         141.6462  136.0318  155.4310 C.ar    1  UNL1        0.0534
     29 C         140.8820  136.2500  154.1589 C.ar    1  UNL1        0.0045
     30 C         140.9202  135.2149  153.0739 C.ar    1  UNL1        0.0001
     31 C         141.7228  133.9615  153.2613 C.ar    1  UNL1        0.0000
     32 C         142.4870  133.7433  154.5334 C.ar    1  UNL1        0.0001
     33 C         142.4487  134.7784  155.6183 C.ar    1  UNL1        0.0045
     34 C         143.2895  132.4899  154.7207 C.ar    1  UNL1        0.0000
     35 C         143.2658  131.4201  153.6695 C.ar    1  UNL1        0.0000
     36 C         144.0683  130.1667  153.8567 C.ar    1  UNL1        0.0000
     37 C         144.8945  129.9831  155.0952 C.ar    1  UNL1        0.0000
     38 C         144.9182  131.0529  156.1463 C.ar    1  UNL1        0.0000
     39 C         144.1157  132.3063  155.9591 C.ar    1  UNL1        0.0000
@<TRIPOS>BOND
     1    22    23    1
     2    23    19    1
     3    19    20    2
     4    19    21    2
     5    19    18    1
     6     7    18    1
     7     7     8    1
     8     8     9    1
     9     9    13    1
    10    13    14    1
    11    13    15    1
    12    15    16    1
    13    15    17    1
    14     9    10    1
    15    10    11    1
    16    11    12    1
    17    12     1    1
    18     1     2    1
    19     2     3    1
    20     3     4    1
    21     4    24    1
    22    24    25   am
    23    25    26    2
    24    25    28    1
    25    28    29   ar
    26    29    30   ar
    27    30    31   ar
    28    31    32   ar
    29    32    34    1
    30    34    35   ar
    31    35    36   ar
    32    36    37   ar
    33    37    38   ar
    34    38    39   ar
    35    32    33   ar
    36     4     5    1
    37     5     6    2
    38    12     7    1
    39     5     1   am
    40    33    28   ar
    41    39    34   ar
    42    24    27    1
