@<TRIPOS>MOLECULE
*****
 32 35 0 0 0
SMALL
GASTEIGER

@<TRIPOS>ATOM
      1 N         144.2425  139.9517  163.8880 N.3     1  UNL1       -0.2700
      2 C         143.9255  139.4455  165.2639 C.3     1  UNL1        0.0897
      3 C         142.7123  138.5923  165.4881 C.3     1  UNL1        0.0897
      4 N         141.8163  138.2453  164.3363 N.3     1  UNL1       -0.2700
      5 C         142.1333  138.7515  162.9603 C.3     1  UNL1        0.0897
      6 C         143.3464  139.6047  162.7362 C.3     1  UNL1        0.0897
      7 C         145.4556  140.8050  163.6638 C.3     1  UNL1        0.0769
      8 C         145.3954  142.2797  163.9315 C.3     1  UNL1        0.0438
      9 C         142.7911  144.0875  161.5442 C.ar    1  UNL1        0.1479
     10 C         143.9746  143.2894  162.0049 C.ar    1  UNL1        0.0334
     11 C         144.2118  143.0778  163.4709 C.ar    1  UNL1       -0.0177
     12 C         143.2655  143.6643  164.4761 C.ar    1  UNL1       -0.0033
     13 C         142.0819  144.4624  164.0154 C.ar    1  UNL1        0.0130
     14 C         141.8447  144.6740  162.5494 C.ar    1  UNL1        0.1023
     15 C         142.9106  143.2217  159.0976 C.3     1  UNL1        0.2525
     16 O         142.5538  144.2992  160.0783 O.3     1  UNL1       -0.4708
     17 C         140.6611  145.4721  162.0888 C.1     1  UNL1        0.1035
     18 N         139.4776  146.2703  161.6281 N.1     1  UNL1       -0.1907
     19 C         140.6031  137.3920  164.5605 C.3     1  UNL1        0.0765
     20 C         139.3438  138.0051  165.0973 C.3     1  UNL1        0.0380
     21 C         138.2951  137.1359  165.7255 C.3     1  UNL1        0.0061
     22 C         139.1332  139.4875  165.0059 C.ar    1  UNL1       -0.0253
     23 C         139.5945  140.3806  166.1191 C.ar    1  UNL1       -0.0044
     24 C         139.3839  141.8629  166.0278 C.ar    1  UNL1        0.0059
     25 C         138.7119  142.4521  164.8231 C.ar    1  UNL1        0.0748
     26 C         138.2505  141.5590  163.7098 C.ar    1  UNL1        0.0233
     27 C         138.4611  140.0767  163.8012 C.ar    1  UNL1       -0.0260
     28 C         137.9998  139.1835  162.6879 C.3     1  UNL1        0.0305
     29 C         137.6233  142.4204  162.6541 C.3     1  UNL1        0.2352
     30 O         137.6970  143.8459  163.1150 O.3     1  UNL1       -0.4404
     31 C         138.3698  143.8656  164.4555 C.2     1  UNL1        0.3413
     32 O         138.6511  145.0846  165.2830 O.2     1  UNL1       -0.2449
@<TRIPOS>BOND
     1    15    16    1
     2    16     9    1
     3     9    10   ar
     4    10    11   ar
     5    11     8    1
     6     8     7    1
     7     7     1    1
     8     1     2    1
     9     2     3    1
    10     3     4    1
    11     4    19    1
    12    19    20    1
    13    20    21    1
    14    20    22    1
    15    22    23   ar
    16    23    24   ar
    17    24    25   ar
    18    25    26   ar
    19    26    27   ar
    20    27    28    1
    21    26    29    1
    22    29    30    1
    23    30    31    1
    24    31    32    2
    25     4     5    1
    26     5     6    1
    27    11    12   ar
    28    12    13   ar
    29    13    14   ar
    30    14    17    1
    31    17    18    3
    32    14     9   ar
    33     6     1    1
    34    27    22   ar
    35    31    25    1
@<TRIPOS>MOLECULE
*****
 32 35 0 0 0
SMALL
GASTEIGER

@<TRIPOS>ATOM
      1 N         139.1646  142.6607  161.2854 N.3     1  UNL1       -0.2700
      2 C         139.8402  141.3271  161.4085 C.3     1  UNL1        0.0897
      3 C         139.4936  140.4129  162.5460 C.3     1  UNL1        0.0897
      4 N         138.4712  140.8322  163.5604 N.3     1  UNL1       -0.2700
      5 C         137.7955  142.1658  163.4373 C.3     1  UNL1        0.0897
      6 C         138.1422  143.0799  162.2998 C.3     1  UNL1        0.0897
      7 C         139.5112  143.5749  160.1479 C.3     1  UNL1        0.0769
      8 C         140.6229  144.5708  160.2980 C.3     1  UNL1        0.0438
      9 C         143.7361  143.5692  162.5462 C.ar    1  UNL1        0.1479
     10 C         142.8036  143.6570  161.3746 C.ar    1  UNL1        0.0334
     11 C         141.5553  144.4831  161.4697 C.ar    1  UNL1       -0.0177
     12 C         141.2393  145.2215  162.7366 C.ar    1  UNL1       -0.0033
     13 C         142.1718  145.1338  163.9083 C.ar    1  UNL1        0.0130
     14 C         143.4201  144.3076  163.8131 C.ar    1  UNL1        0.1023
     15 C         144.9381  141.2758  162.7596 C.3     1  UNL1        0.2525
     16 O         144.9845  142.7431  162.4512 O.3     1  UNL1       -0.4708
     17 C         144.3525  144.2199  164.9849 C.1     1  UNL1        0.1035
     18 N         145.2849  144.1322  166.1566 N.1     1  UNL1       -0.1907
     19 C         138.1245  139.9180  164.6979 C.3     1  UNL1        0.0765
     20 C         139.2133  139.3262  165.5431 C.3     1  UNL1        0.0380
     21 C         139.9054  138.0702  165.1031 C.3     1  UNL1        0.0061
     22 C         139.6100  139.9903  166.8283 C.ar    1  UNL1       -0.0253
     23 C         138.8505  139.6991  168.0885 C.ar    1  UNL1       -0.0044
     24 C         139.2472  140.3633  169.3737 C.ar    1  UNL1        0.0059
     25 C         140.4033  141.3186  169.3985 C.ar    1  UNL1        0.0748
     26 C         141.1628  141.6099  168.1382 C.ar    1  UNL1        0.0233
     27 C         140.7662  140.9457  166.8531 C.ar    1  UNL1       -0.0260
     28 C         141.5256  141.2369  165.5927 C.3     1  UNL1        0.0305
     29 C         142.2501  142.5891  168.4680 C.3     1  UNL1        0.2352
     30 O         142.1626  142.9031  169.9321 O.3     1  UNL1       -0.4404
     31 C         141.0212  142.1179  170.5072 C.2     1  UNL1        0.3413
     32 O         140.5760  142.1299  171.9396 O.2     1  UNL1       -0.2449
@<TRIPOS>BOND
     1    15    16    1
     2    16     9    1
     3     9    10   ar
     4    10    11   ar
     5    11     8    1
     6     8     7    1
     7     7     1    1
     8     1     2    1
     9     2     3    1
    10     3     4    1
    11     4    19    1
    12    19    20    1
    13    20    21    1
    14    20    22    1
    15    22    23   ar
    16    23    24   ar
    17    24    25   ar
    18    25    26   ar
    19    26    27   ar
    20    27    28    1
    21    26    29    1
    22    29    30    1
    23    30    31    1
    24    31    32    2
    25     4     5    1
    26     5     6    1
    27    11    12   ar
    28    12    13   ar
    29    13    14   ar
    30    14    17    1
    31    17    18    3
    32    14     9   ar
    33     6     1    1
    34    27    22   ar
    35    31    25    1
@<TRIPOS>MOLECULE
*****
 32 35 0 0 0
SMALL
GASTEIGER

@<TRIPOS>ATOM
      1 N         140.5166  140.4222  167.1069 N.3     1  UNL1       -0.2700
      2 C         141.6572  139.5347  166.7051 C.3     1  UNL1        0.0897
      3 C         142.8747  140.1250  166.0575 C.3     1  UNL1        0.0897
      4 N         142.9515  141.6028  165.8117 N.3     1  UNL1       -0.2700
      5 C         141.8108  142.4902  166.2134 C.3     1  UNL1        0.0897
      6 C         140.5934  141.8999  166.8610 C.3     1  UNL1        0.0897
      7 C         139.2992  139.8319  167.7545 C.3     1  UNL1        0.0769
      8 C         138.3523  138.9936  166.9477 C.3     1  UNL1        0.0438
      9 C         137.8126  140.4773  163.3067 C.ar    1  UNL1        0.1479
     10 C         137.8287  140.3619  164.8022 C.ar    1  UNL1        0.0334
     11 C         138.3362  139.1090  165.4523 C.ar    1  UNL1       -0.0177
     12 C         138.8274  137.9714  164.6070 C.ar    1  UNL1       -0.0033
     13 C         138.8113  138.0868  163.1115 C.ar    1  UNL1        0.0130
     14 C         138.3038  139.3398  162.4614 C.ar    1  UNL1        0.1023
     15 C         137.6306  143.0684  163.2510 C.3     1  UNL1        0.2525
     16 O         137.3051  141.7303  162.6565 O.3     1  UNL1       -0.4708
     17 C         138.2877  139.4551  160.9659 C.1     1  UNL1        0.1035
     18 N         138.2717  139.5704  159.4704 N.1     1  UNL1       -0.1907
     19 C         144.1689  142.1930  165.1641 C.3     1  UNL1        0.0765
     20 C         144.2945  142.1999  163.6694 C.3     1  UNL1        0.0380
     21 C         145.6162  141.9000  163.0264 C.3     1  UNL1        0.0061
     22 C         143.0985  142.5066  162.8176 C.ar    1  UNL1       -0.0253
     23 C         142.3556  141.3941  162.1393 C.ar    1  UNL1       -0.0044
     24 C         141.1596  141.7008  161.2875 C.ar    1  UNL1        0.0059
     25 C         140.7065  143.1201  161.1141 C.ar    1  UNL1        0.0748
     26 C         141.4494  144.2328  161.7924 C.ar    1  UNL1        0.0233
     27 C         142.6454  143.9261  162.6442 C.ar    1  UNL1       -0.0260
     28 C         143.3883  145.0387  163.3226 C.3     1  UNL1        0.0305
     29 C         140.7735  145.5244  161.4392 C.3     1  UNL1        0.2352
     30 O         139.6128  145.2100  160.5425 O.3     1  UNL1       -0.4404
     31 C         139.5714  143.7241  160.3416 C.2     1  UNL1        0.3413
     32 O         138.5707  142.9739  159.5135 O.2     1  UNL1       -0.2449
@<TRIPOS>BOND
     1    15    16    1
     2    16     9    1
     3     9    10   ar
     4    10    11   ar
     5    11     8    1
     6     8     7    1
     7     7     1    1
     8     1     2    1
     9     2     3    1
    10     3     4    1
    11     4    19    1
    12    19    20    1
    13    20    21    1
    14    20    22    1
    15    22    23   ar
    16    23    24   ar
    17    24    25   ar
    18    25    26   ar
    19    26    27   ar
    20    27    28    1
    21    26    29    1
    22    29    30    1
    23    30    31    1
    24    31    32    2
    25     4     5    1
    26     5     6    1
    27    11    12   ar
    28    12    13   ar
    29    13    14   ar
    30    14    17    1
    31    17    18    3
    32    14     9   ar
    33     6     1    1
    34    27    22   ar
    35    31    25    1
@<TRIPOS>MOLECULE
*****
 32 35 0 0 0
SMALL
GASTEIGER

@<TRIPOS>ATOM
      1 N         139.1820  142.7133  160.8870 N.3     1  UNL1       -0.2700
      2 C         138.1199  142.9577  161.9176 C.3     1  UNL1        0.0897
      3 C         137.7801  141.8880  162.9128 C.3     1  UNL1        0.0897
      4 N         138.5026  140.5739  162.8772 N.3     1  UNL1       -0.2700
      5 C         139.5647  140.3294  161.8466 C.3     1  UNL1        0.0897
      6 C         139.9043  141.3992  160.8515 C.3     1  UNL1        0.0897
      7 C         139.5217  143.7830  159.8918 C.3     1  UNL1        0.0769
      8 C         140.4343  144.9078  160.2818 C.3     1  UNL1        0.0438
      9 C         143.5976  143.7876  162.4003 C.ar    1  UNL1        0.1479
     10 C         142.6489  143.9557  161.2507 C.ar    1  UNL1        0.0334
     11 C         141.3829  144.7397  161.4315 C.ar    1  UNL1       -0.0177
     12 C         141.0657  145.3556  162.7619 C.ar    1  UNL1       -0.0033
     13 C         142.0144  145.1875  163.9115 C.ar    1  UNL1        0.0130
     14 C         143.2804  144.4034  163.7307 C.ar    1  UNL1        0.1023
     15 C         144.8344  141.5054  162.2893 C.3     1  UNL1        0.2525
     16 O         144.8636  143.0035  162.2196 O.3     1  UNL1       -0.4708
     17 C         144.2291  144.2354  164.8805 C.1     1  UNL1        0.1035
     18 N         145.1776  144.0672  166.0302 N.1     1  UNL1       -0.1907
     19 C         138.1628  139.5042  163.8724 C.3     1  UNL1        0.0765
     20 C         139.2258  138.9586  164.7792 C.3     1  UNL1        0.0380
     21 C         139.8518  137.6275  164.4852 C.3     1  UNL1        0.0061
     22 C         139.6628  139.7441  165.9802 C.ar    1  UNL1       -0.0253
     23 C         140.8118  140.7022  165.8722 C.ar    1  UNL1       -0.0044
     24 C         141.2488  141.4876  167.0730 C.ar    1  UNL1        0.0059
     25 C         140.5368  141.3149  168.3819 C.ar    1  UNL1        0.0748
     26 C         139.3877  140.3568  168.4899 C.ar    1  UNL1        0.0233
     27 C         138.9507  139.5713  167.2891 C.ar    1  UNL1       -0.0260
     28 C         137.8017  138.6131  167.3970 C.3     1  UNL1        0.0305
     29 C         138.8816  140.3971  169.9014 C.3     1  UNL1        0.2352
     30 O         139.7179  141.3802  170.6657 O.3     1  UNL1       -0.4404
     31 C         140.7408  141.9475  169.7266 C.2     1  UNL1        0.3413
     32 O         141.7845  142.9680  170.0717 O.2     1  UNL1       -0.2449
@<TRIPOS>BOND
     1    15    16    1
     2    16     9    1
     3     9    10   ar
     4    10    11   ar
     5    11     8    1
     6     8     7    1
     7     7     1    1
     8     1     2    1
     9     2     3    1
    10     3     4    1
    11     4    19    1
    12    19    20    1
    13    20    21    1
    14    20    22    1
    15    22    23   ar
    16    23    24   ar
    17    24    25   ar
    18    25    26   ar
    19    26    27   ar
    20    27    28    1
    21    26    29    1
    22    29    30    1
    23    30    31    1
    24    31    32    2
    25     4     5    1
    26     5     6    1
    27    11    12   ar
    28    12    13   ar
    29    13    14   ar
    30    14    17    1
    31    17    18    3
    32    14     9   ar
    33     6     1    1
    34    27    22   ar
    35    31    25    1
@<TRIPOS>MOLECULE
*****
 32 35 0 0 0
SMALL
GASTEIGER

@<TRIPOS>ATOM
      1 N         142.6646  138.4422  162.4906 N.3     1  UNL1       -0.2700
      2 C         141.3588  138.0413  161.8707 C.3     1  UNL1        0.0897
      3 C         140.1738  137.7473  162.7421 C.3     1  UNL1        0.0897
      4 N         140.2946  137.8543  164.2335 N.3     1  UNL1       -0.2700
      5 C         141.6004  138.2553  164.8534 C.3     1  UNL1        0.0897
      6 C         142.7853  138.5492  163.9819 C.3     1  UNL1        0.0897
      7 C         143.8496  138.7362  161.6193 C.3     1  UNL1        0.0769
      8 C         144.3998  140.1298  161.5464 C.3     1  UNL1        0.0438
      9 C         142.4957  143.6060  161.7454 C.ar    1  UNL1        0.1479
     10 C         143.3972  142.4614  162.1017 C.ar    1  UNL1        0.0334
     11 C         143.4982  141.2744  161.1901 C.ar    1  UNL1       -0.0177
     12 C         142.6977  141.2321  159.9223 C.ar    1  UNL1       -0.0033
     13 C         141.7961  142.3768  159.5661 C.ar    1  UNL1        0.0130
     14 C         141.6951  143.5637  160.4776 C.ar    1  UNL1        0.1023
     15 C         143.2944  144.8994  163.8524 C.3     1  UNL1        0.2525
     16 O         142.3946  144.7931  162.6570 O.3     1  UNL1       -0.4708
     17 C         140.7935  144.7084  160.1213 C.1     1  UNL1        0.1035
     18 N         139.8920  145.8531  159.7649 N.1     1  UNL1       -0.1907
     19 C         139.1096  137.5603  165.1049 C.3     1  UNL1        0.0765
     20 C         138.3631  138.6845  165.7599 C.3     1  UNL1        0.0380
     21 C         137.5880  138.4363  167.0199 C.3     1  UNL1        0.0061
     22 C         138.3916  140.0568  165.1548 C.ar    1  UNL1       -0.0253
     23 C         137.5832  140.3517  163.9262 C.ar    1  UNL1       -0.0044
     24 C         137.6117  141.7239  163.3211 C.ar    1  UNL1        0.0059
     25 C         138.4486  142.8013  163.9447 C.ar    1  UNL1        0.0748
     26 C         139.2570  142.5064  165.1733 C.ar    1  UNL1        0.0233
     27 C         139.2285  141.1342  165.7784 C.ar    1  UNL1       -0.0260
     28 C         140.0370  140.8392  167.0070 C.3     1  UNL1        0.0305
     29 C         139.9820  143.7603  165.5632 C.3     1  UNL1        0.2352
     30 O         139.6217  144.8302  164.5755 O.3     1  UNL1       -0.4404
     31 C         138.6739  144.2375  163.5752 C.2     1  UNL1        0.3413
     32 O         138.0595  144.9550  162.4100 O.2     1  UNL1       -0.2449
@<TRIPOS>BOND
     1    15    16    1
     2    16     9    1
     3     9    10   ar
     4    10    11   ar
     5    11     8    1
     6     8     7    1
     7     7     1    1
     8     1     2    1
     9     2     3    1
    10     3     4    1
    11     4    19    1
    12    19    20    1
    13    20    21    1
    14    20    22    1
    15    22    23   ar
    16    23    24   ar
    17    24    25   ar
    18    25    26   ar
    19    26    27   ar
    20    27    28    1
    21    26    29    1
    22    29    30    1
    23    30    31    1
    24    31    32    2
    25     4     5    1
    26     5     6    1
    27    11    12   ar
    28    12    13   ar
    29    13    14   ar
    30    14    17    1
    31    17    18    3
    32    14     9   ar
    33     6     1    1
    34    27    22   ar
    35    31    25    1
@<TRIPOS>MOLECULE
*****
 32 35 0 0 0
SMALL
GASTEIGER

@<TRIPOS>ATOM
      1 N         141.2707  138.0360  161.2324 N.3     1  UNL1       -0.2700
      2 C         139.7719  138.0094  161.1793 C.3     1  UNL1        0.0897
      3 C         138.9788  137.8739  162.4453 C.3     1  UNL1        0.0897
      4 N         139.6847  137.7649  163.7644 N.3     1  UNL1       -0.2700
      5 C         141.1836  137.7915  163.8175 C.3     1  UNL1        0.0897
      6 C         141.9765  137.9270  162.5515 C.3     1  UNL1        0.0897
      7 C         142.0637  138.1715  159.9665 C.3     1  UNL1        0.0769
      8 C         142.2630  139.5231  159.3472 C.3     1  UNL1        0.0438
      9 C         144.2772  141.9615  161.7445 C.ar    1  UNL1        0.1479
     10 C         143.9402  140.7828  160.8801 C.ar    1  UNL1        0.0334
     11 C         142.5999  140.7018  160.2116 C.ar    1  UNL1       -0.0177
     12 C         141.5965  141.7994  160.4075 C.ar    1  UNL1       -0.0033
     13 C         141.9334  142.9780  161.2719 C.ar    1  UNL1        0.0130
     14 C         143.2738  143.0591  161.9404 C.ar    1  UNL1        0.1023
     15 C         145.8268  141.4032  163.7537 C.3     1  UNL1        0.2525
     16 O         145.6176  142.0426  162.4130 O.3     1  UNL1       -0.4708
     17 C         143.6106  144.2378  162.8048 C.1     1  UNL1        0.1035
     18 N         143.9474  145.4166  163.6692 N.1     1  UNL1       -0.1907
     19 C         138.8917  137.6294  165.0304 C.3     1  UNL1        0.0765
     20 C         138.3788  138.8538  165.7288 C.3     1  UNL1        0.0380
     21 C         137.7008  138.7288  167.0610 C.3     1  UNL1        0.0061
     22 C         138.5439  140.2034  165.0950 C.ar    1  UNL1       -0.0253
     23 C         137.5757  140.6626  164.0455 C.ar    1  UNL1       -0.0044
     24 C         137.7408  142.0120  163.4117 C.ar    1  UNL1        0.0059
     25 C         138.8742  142.9023  163.8274 C.ar    1  UNL1        0.0748
     26 C         139.8425  142.4431  164.8770 C.ar    1  UNL1        0.0233
     27 C         139.6774  141.0936  165.5108 C.ar    1  UNL1       -0.0260
     28 C         140.6457  140.6343  166.5604 C.3     1  UNL1        0.0305
     29 C         140.8547  143.5310  165.0816 C.3     1  UNL1        0.2352
     30 O         140.5120  144.6625  164.1586 O.3     1  UNL1       -0.4404
     31 C         139.2880  144.2740  163.3834 C.2     1  UNL1        0.3413
     32 O         138.5988  145.1103  162.3463 O.2     1  UNL1       -0.2449
@<TRIPOS>BOND
     1    15    16    1
     2    16     9    1
     3     9    10   ar
     4    10    11   ar
     5    11     8    1
     6     8     7    1
     7     7     1    1
     8     1     2    1
     9     2     3    1
    10     3     4    1
    11     4    19    1
    12    19    20    1
    13    20    21    1
    14    20    22    1
    15    22    23   ar
    16    23    24   ar
    17    24    25   ar
    18    25    26   ar
    19    26    27   ar
    20    27    28    1
    21    26    29    1
    22    29    30    1
    23    30    31    1
    24    31    32    2
    25     4     5    1
    26     5     6    1
    27    11    12   ar
    28    12    13   ar
    29    13    14   ar
    30    14    17    1
    31    17    18    3
    32    14     9   ar
    33     6     1    1
    34    27    22   ar
    35    31    25    1
@<TRIPOS>MOLECULE
*****
 32 35 0 0 0
SMALL
GASTEIGER

@<TRIPOS>ATOM
      1 N         143.1162  138.6200  163.3328 N.3     1  UNL1       -0.2700
      2 C         143.8052  139.6803  164.1396 C.3     1  UNL1        0.0897
      3 C         143.2885  140.0413  165.5008 C.3     1  UNL1        0.0897
      4 N         142.0828  139.3420  166.0550 N.3     1  UNL1       -0.2700
      5 C         141.3938  138.2816  165.2482 C.3     1  UNL1        0.0897
      6 C         141.9105  137.9206  163.8871 C.3     1  UNL1        0.0897
      7 C         143.6329  138.2589  161.9717 C.3     1  UNL1        0.0769
      8 C         144.1687  139.3272  161.0651 C.3     1  UNL1        0.0438
      9 C         142.8266  143.0618  161.0326 C.ar    1  UNL1        0.1479
     10 C         143.6647  141.8596  161.3524 C.ar    1  UNL1        0.0334
     11 C         143.3306  140.5293  160.7453 C.ar    1  UNL1       -0.0177
     12 C         142.1583  140.4012  159.8183 C.ar    1  UNL1       -0.0033
     13 C         141.3202  141.6034  159.4985 C.ar    1  UNL1        0.0130
     14 C         141.6543  142.9337  160.1056 C.ar    1  UNL1        0.1023
     15 C         144.0639  144.4653  162.8352 C.3     1  UNL1        0.2525
     16 O         143.1607  144.3921  161.6398 O.3     1  UNL1       -0.4708
     17 C         140.8161  144.1358  159.7857 C.1     1  UNL1        0.1035
     18 N         139.9779  145.3379  159.4660 N.1     1  UNL1       -0.1907
     19 C         141.5661  139.7030  167.4162 C.3     1  UNL1        0.0765
     20 C         140.2805  140.4636  167.5529 C.3     1  UNL1        0.0380
     21 C         139.4691  140.3454  168.8089 C.3     1  UNL1        0.0061
     22 C         139.8063  141.3424  166.4335 C.ar    1  UNL1       -0.0253
     23 C         140.3541  142.7309  166.2865 C.ar    1  UNL1       -0.0044
     24 C         139.8800  143.6097  165.1672 C.ar    1  UNL1        0.0059
     25 C         138.8578  143.0999  164.1949 C.ar    1  UNL1        0.0748
     26 C         138.3099  141.7113  164.3419 C.ar    1  UNL1        0.0233
     27 C         138.7841  140.8325  165.4612 C.ar    1  UNL1       -0.0260
     28 C         138.2362  139.4439  165.6083 C.3     1  UNL1        0.0305
     29 C         137.3190  141.4848  163.2388 C.3     1  UNL1        0.2352
     30 O         137.2545  142.7334  162.4101 O.3     1  UNL1       -0.4404
     31 C         138.2055  143.7316  163.0010 C.2     1  UNL1        0.3413
     32 O         138.4597  145.1181  162.4880 O.2     1  UNL1       -0.2449
@<TRIPOS>BOND
     1    15    16    1
     2    16     9    1
     3     9    10   ar
     4    10    11   ar
     5    11     8    1
     6     8     7    1
     7     7     1    1
     8     1     2    1
     9     2     3    1
    10     3     4    1
    11     4    19    1
    12    19    20    1
    13    20    21    1
    14    20    22    1
    15    22    23   ar
    16    23    24   ar
    17    24    25   ar
    18    25    26   ar
    19    26    27   ar
    20    27    28    1
    21    26    29    1
    22    29    30    1
    23    30    31    1
    24    31    32    2
    25     4     5    1
    26     5     6    1
    27    11    12   ar
    28    12    13   ar
    29    13    14   ar
    30    14    17    1
    31    17    18    3
    32    14     9   ar
    33     6     1    1
    34    27    22   ar
    35    31    25    1
@<TRIPOS>MOLECULE
*****
 32 35 0 0 0
SMALL
GASTEIGER

@<TRIPOS>ATOM
      1 N         144.3419  140.0567  164.0776 N.3     1  UNL1       -0.2700
      2 C         143.8928  139.1949  162.9349 C.3     1  UNL1        0.0897
      3 C         142.7338  138.2593  163.1115 C.3     1  UNL1        0.0897
      4 N         142.0238  138.1855  164.4309 N.3     1  UNL1       -0.2700
      5 C         142.4729  139.0473  165.5736 C.3     1  UNL1        0.0897
      6 C         143.6319  139.9829  165.3969 C.3     1  UNL1        0.0897
      7 C         145.5009  140.9924  163.9010 C.3     1  UNL1        0.0769
      8 C         145.3284  142.4587  164.1662 C.3     1  UNL1        0.0438
      9 C         142.7399  144.1437  161.6742 C.ar    1  UNL1        0.1479
     10 C         143.9545  143.4270  162.1852 C.ar    1  UNL1        0.0334
     11 C         144.1138  143.1754  163.6553 C.ar    1  UNL1       -0.0177
     12 C         143.0585  143.6404  164.6145 C.ar    1  UNL1       -0.0033
     13 C         141.8439  144.3572  164.1036 C.ar    1  UNL1        0.0130
     14 C         141.6846  144.6088  162.6335 C.ar    1  UNL1        0.1023
     15 C         142.6267  143.2492  159.2377 C.3     1  UNL1        0.2525
     16 O         142.5805  144.3955  160.2041 O.3     1  UNL1       -0.4708
     17 C         140.4699  145.3256  162.1226 C.1     1  UNL1        0.1035
     18 N         139.2553  146.0422  161.6117 N.1     1  UNL1       -0.1907
     19 C         140.8648  137.2498  164.6075 C.3     1  UNL1        0.0765
     20 C         139.4615  137.7567  164.4533 C.3     1  UNL1        0.0380
     21 C         138.3941  137.3116  165.4085 C.3     1  UNL1        0.0061
     22 C         139.1256  138.7088  163.3438 C.ar    1  UNL1       -0.0253
     23 C         139.2016  138.2540  161.9165 C.ar    1  UNL1       -0.0044
     24 C         138.8658  139.2060  160.8071 C.ar    1  UNL1        0.0059
     25 C         138.4539  140.6128  161.1250 C.ar    1  UNL1        0.0748
     26 C         138.3778  141.0677  162.5523 C.ar    1  UNL1        0.0233
     27 C         138.7137  140.1157  163.6618 C.ar    1  UNL1       -0.0260
     28 C         138.6377  140.5705  165.0892 C.3     1  UNL1        0.0305
     29 C         137.9437  142.5035  162.5588 C.3     1  UNL1        0.2352
     30 O         137.7515  142.9360  161.1355 O.3     1  UNL1       -0.4404
     31 C         138.0668  141.7675  160.2493 C.2     1  UNL1        0.3413
     32 O         138.0056  141.7558  158.7506 O.2     1  UNL1       -0.2449
@<TRIPOS>BOND
     1    15    16    1
     2    16     9    1
     3     9    10   ar
     4    10    11   ar
     5    11     8    1
     6     8     7    1
     7     7     1    1
     8     1     2    1
     9     2     3    1
    10     3     4    1
    11     4    19    1
    12    19    20    1
    13    20    21    1
    14    20    22    1
    15    22    23   ar
    16    23    24   ar
    17    24    25   ar
    18    25    26   ar
    19    26    27   ar
    20    27    28    1
    21    26    29    1
    22    29    30    1
    23    30    31    1
    24    31    32    2
    25     4     5    1
    26     5     6    1
    27    11    12   ar
    28    12    13   ar
    29    13    14   ar
    30    14    17    1
    31    17    18    3
    32    14     9   ar
    33     6     1    1
    34    27    22   ar
    35    31    25    1
@<TRIPOS>MOLECULE
*****
 32 35 0 0 0
SMALL
GASTEIGER

@<TRIPOS>ATOM
      1 N         143.8446  140.5402  164.9169 N.3     1  UNL1       -0.2700
      2 C         143.2534  139.1837  164.6716 C.3     1  UNL1        0.0897
      3 C         142.0140  138.7620  165.4039 C.3     1  UNL1        0.0897
      4 N         141.3659  139.6971  166.3815 N.3     1  UNL1       -0.2700
      5 C         141.9570  141.0537  166.6268 C.3     1  UNL1        0.0897
      6 C         143.1964  141.4752  165.8945 C.3     1  UNL1        0.0897
      7 C         145.0839  140.9619  164.1846 C.3     1  UNL1        0.0769
      8 C         145.2533  142.3896  163.7567 C.3     1  UNL1        0.0438
      9 C         142.1648  143.5643  161.5588 C.ar    1  UNL1        0.1479
     10 C         143.3514  142.7767  162.0297 C.ar    1  UNL1        0.0334
     11 C         144.0667  143.1772  163.2859 C.ar    1  UNL1       -0.0177
     12 C         143.5955  144.3652  164.0711 C.ar    1  UNL1       -0.0033
     13 C         142.4090  145.1527  163.6002 C.ar    1  UNL1        0.0130
     14 C         141.6936  144.7523  162.3440 C.ar    1  UNL1        0.1023
     15 C         141.6398  141.7876  159.7373 C.3     1  UNL1        0.2525
     16 O         141.4494  143.1639  160.3026 O.3     1  UNL1       -0.4708
     17 C         140.5070  145.5400  161.8732 C.1     1  UNL1        0.1035
     18 N         139.3204  146.3275  161.4024 N.1     1  UNL1       -0.1907
     19 C         140.1265  139.2755  167.1137 C.3     1  UNL1        0.0765
     20 C         138.8010  139.2845  166.4117 C.3     1  UNL1        0.0380
     21 C         137.6213  138.5924  167.0277 C.3     1  UNL1        0.0061
     22 C         138.6551  139.9856  165.0936 C.ar    1  UNL1       -0.0253
     23 C         138.4917  141.4760  165.0509 C.ar    1  UNL1       -0.0044
     24 C         138.3457  142.1771  163.7329 C.ar    1  UNL1        0.0059
     25 C         138.3632  141.3877  162.4575 C.ar    1  UNL1        0.0748
     26 C         138.5267  139.8972  162.5002 C.ar    1  UNL1        0.0233
     27 C         138.6726  139.1961  163.8182 C.ar    1  UNL1       -0.0260
     28 C         138.8360  137.7057  163.8609 C.3     1  UNL1        0.0305
     29 C         138.5067  139.3881  161.0894 C.3     1  UNL1        0.2352
     30 O         138.3309  140.5640  160.1748 O.3     1  UNL1       -0.4404
     31 C         138.2422  141.7998  161.0203 C.2     1  UNL1        0.3413
     32 O         138.0639  143.2015  160.5170 O.2     1  UNL1       -0.2449
@<TRIPOS>BOND
     1    15    16    1
     2    16     9    1
     3     9    10   ar
     4    10    11   ar
     5    11     8    1
     6     8     7    1
     7     7     1    1
     8     1     2    1
     9     2     3    1
    10     3     4    1
    11     4    19    1
    12    19    20    1
    13    20    21    1
    14    20    22    1
    15    22    23   ar
    16    23    24   ar
    17    24    25   ar
    18    25    26   ar
    19    26    27   ar
    20    27    28    1
    21    26    29    1
    22    29    30    1
    23    30    31    1
    24    31    32    2
    25     4     5    1
    26     5     6    1
    27    11    12   ar
    28    12    13   ar
    29    13    14   ar
    30    14    17    1
    31    17    18    3
    32    14     9   ar
    33     6     1    1
    34    27    22   ar
    35    31    25    1
