@<TRIPOS>MOLECULE
*****
 35 39 0 0 0
SMALL
GASTEIGER

@<TRIPOS>ATOM
      1 C         143.7289  142.5830  159.9936 C.3     1  UNL1        0.0730
      2 C         142.0983  139.9380  166.7338 C.ar    1  UNL1        0.0206
      3 C         143.2357  138.9957  166.4723 C.ar    1  UNL1        0.0013
      4 C         143.9913  139.0728  165.1788 C.ar    1  UNL1       -0.0045
      5 C         143.6093  140.0922  164.1467 C.ar    1  UNL1       -0.0247
      6 C         142.4720  141.0343  164.4083 C.ar    1  UNL1       -0.0246
      7 C         141.7164  140.9573  165.7017 C.ar    1  UNL1       -0.0029
      8 C         141.9314  142.1168  163.5216 C.3     1  UNL1        0.0433
      9 C         142.3949  142.5243  162.1543 C.3     1  UNL1        0.0768
     10 N         143.5132  141.9500  161.3362 N.3     1  UNL1       -0.2720
     11 C         144.4444  140.8264  161.6831 C.3     1  UNL1        0.0768
     12 C         144.4872  139.9995  162.9339 C.3     1  UNL1        0.0433
     13 C         138.2570  140.3202  170.3364 C.3     1  UNL1        0.0754
     14 C         139.5771  140.0365  169.6833 C.ar    1  UNL1        0.1548
     15 C         139.9228  140.2919  168.2461 C.ar    1  UNL1        0.0580
     16 C         141.3428  139.8608  168.0273 C.ar    1  UNL1        0.1227
     17 N         141.8747  139.3391  169.3293 N.ar    1  UNL1       -0.0774
     18 O         140.7835  139.4477  170.3526 O.2     1  UNL1       -0.3578
     19 C         144.2193  141.7541  158.8436 C.3     1  UNL1        0.0294
     20 C         143.2825  141.3849  157.7318 C.3     1  UNL1        0.0666
     21 S         142.6175  140.0405  157.7268 S.3     1  UNL1       -0.0756
     22 C         142.4275  139.2929  159.0133 C.ar    1  UNL1        0.1932
     23 N         143.2731  138.1559  159.5054 N.ar    1  UNL1       -0.1221
     24 N         142.7269  137.7113  160.8298 N.ar    1  UNL1       -0.1282
     25 C         141.5436  138.5736  161.1561 C.ar    1  UNL1        0.1668
     26 N         141.3586  139.5510  160.0334 N.ar    1  UNL1       -0.2884
     27 C         140.2919  140.6021  159.9463 C.3     1  UNL1        0.1340
     28 C         140.6945  138.4756  162.3887 C.ar    1  UNL1        0.0360
     29 C         139.5026  139.3717  162.5516 C.ar    1  UNL1        0.0037
     30 C         138.6535  139.2737  163.7842 C.ar    1  UNL1        0.0104
     31 C         138.9961  138.2796  164.8540 C.ar    1  UNL1        0.0685
     32 C         140.1879  137.3835  164.6911 C.ar    1  UNL1        0.0104
     33 C         141.0371  137.4815  163.4585 C.ar    1  UNL1        0.0037
     34 C         138.1469  138.1816  166.0866 C.1     1  UNL1        0.1004
     35 N         137.2978  138.0836  167.3192 N.1     1  UNL1       -0.1908
@<TRIPOS>BOND
     1    13    14    1
     2    14    15   ar
     3    15    16   ar
     4    16     2    1
     5     2     3   ar
     6     3     4   ar
     7     4     5   ar
     8     5     6   ar
     9     6     7   ar
    10     6     8    1
    11     8     9    1
    12     9    10    1
    13    10     1    1
    14     1    19    1
    15    19    20    1
    16    20    21    1
    17    21    22    1
    18    22    23   ar
    19    23    24   ar
    20    24    25   ar
    21    25    28    1
    22    28    29   ar
    23    29    30   ar
    24    30    31   ar
    25    31    34    1
    26    34    35    3
    27    31    32   ar
    28    32    33   ar
    29    25    26   ar
    30    26    27    1
    31    10    11    1
    32    11    12    1
    33    16    17   ar
    34    17    18   ar
    35    18    14   ar
    36     7     2   ar
    37    26    22   ar
    38    12     5    1
    39    33    28   ar
@<TRIPOS>MOLECULE
*****
 35 39 0 0 0
SMALL
GASTEIGER

@<TRIPOS>ATOM
      1 C         139.2632  139.5612  158.9041 C.3     1  UNL1        0.0730
      2 C         139.4377  139.9723  166.3127 C.ar    1  UNL1        0.0206
      3 C         139.0449  138.5260  166.2503 C.ar    1  UNL1        0.0013
      4 C         138.8523  137.8577  164.9212 C.ar    1  UNL1       -0.0045
      5 C         139.0526  138.6358  163.6545 C.ar    1  UNL1       -0.0247
      6 C         139.4454  140.0820  163.7169 C.ar    1  UNL1       -0.0246
      7 C         139.6380  140.7503  165.0459 C.ar    1  UNL1       -0.0029
      8 C         139.6938  141.0334  162.5841 C.3     1  UNL1        0.0433
      9 C         139.6107  140.7733  161.1091 C.3     1  UNL1        0.0768
     10 N         139.2587  139.4978  160.4027 N.3     1  UNL1       -0.2720
     11 C         138.9029  138.1672  160.9968 C.3     1  UNL1        0.0768
     12 C         138.8111  137.7836  162.4440 C.3     1  UNL1        0.0433
     13 C         140.7135  143.5148  170.0145 C.3     1  UNL1        0.0754
     14 C         140.2167  142.2688  169.3433 C.ar    1  UNL1        0.1548
     15 C         140.2129  142.0042  167.8667 C.ar    1  UNL1        0.0580
     16 C         139.6303  140.6404  167.6417 C.ar    1  UNL1        0.1227
     17 N         139.2741  140.0621  168.9791 N.ar    1  UNL1       -0.0774
     18 O         139.6365  141.0684  170.0307 O.2     1  UNL1       -0.3578
     19 C         140.5165  139.9422  158.1731 C.3     1  UNL1        0.0294
     20 C         141.5898  138.9202  157.9415 C.3     1  UNL1        0.0666
     21 S         142.9757  139.1565  158.4641 S.3     1  UNL1       -0.0756
     22 C         143.1721  139.7937  159.8077 C.ar    1  UNL1        0.1932
     23 N         143.6497  141.1934  160.0584 N.ar    1  UNL1       -0.1221
     24 N         143.6982  141.4079  161.5422 N.ar    1  UNL1       -0.1282
     25 C         143.2506  140.1407  162.2085 C.ar    1  UNL1        0.1668
     26 N         142.9254  139.1431  161.1366 N.ar    1  UNL1       -0.2884
     27 C         142.4390  137.7411  161.3552 C.3     1  UNL1        0.1340
     28 C         143.1464  139.9115  163.6872 C.ar    1  UNL1        0.0360
     29 C         142.8753  138.5339  164.2153 C.ar    1  UNL1        0.0037
     30 C         142.7711  138.3046  165.6940 C.ar    1  UNL1        0.0104
     31 C         142.9380  139.4528  166.6447 C.ar    1  UNL1        0.0685
     32 C         143.2090  140.8304  166.1166 C.ar    1  UNL1        0.0104
     33 C         143.3133  141.0596  164.6379 C.ar    1  UNL1        0.0037
     34 C         142.8338  139.2235  168.1234 C.1     1  UNL1        0.1004
     35 N         142.7296  138.9942  169.6021 N.1     1  UNL1       -0.1908
@<TRIPOS>BOND
     1    13    14    1
     2    14    15   ar
     3    15    16   ar
     4    16     2    1
     5     2     3   ar
     6     3     4   ar
     7     4     5   ar
     8     5     6   ar
     9     6     7   ar
    10     6     8    1
    11     8     9    1
    12     9    10    1
    13    10     1    1
    14     1    19    1
    15    19    20    1
    16    20    21    1
    17    21    22    1
    18    22    23   ar
    19    23    24   ar
    20    24    25   ar
    21    25    28    1
    22    28    29   ar
    23    29    30   ar
    24    30    31   ar
    25    31    34    1
    26    34    35    3
    27    31    32   ar
    28    32    33   ar
    29    25    26   ar
    30    26    27    1
    31    10    11    1
    32    11    12    1
    33    16    17   ar
    34    17    18   ar
    35    18    14   ar
    36     7     2   ar
    37    26    22   ar
    38    12     5    1
    39    33    28   ar
@<TRIPOS>MOLECULE
*****
 35 39 0 0 0
SMALL
GASTEIGER

@<TRIPOS>ATOM
      1 C         138.1179  140.9901  158.4600 C.3     1  UNL1        0.0730
      2 C         138.9867  139.3323  165.6421 C.ar    1  UNL1        0.0206
      3 C         139.5025  138.0236  165.1210 C.ar    1  UNL1        0.0013
      4 C         139.5621  137.7761  163.6428 C.ar    1  UNL1       -0.0045
      5 C         139.1060  138.8372  162.6856 C.ar    1  UNL1       -0.0247
      6 C         138.5903  140.1457  163.2067 C.ar    1  UNL1       -0.0246
      7 C         138.5306  140.3933  164.6849 C.ar    1  UNL1       -0.0029
      8 C         138.0898  141.3289  162.4323 C.3     1  UNL1        0.0433
      9 C         137.9815  141.4956  160.9455 C.3     1  UNL1        0.0768
     10 N         138.3468  140.5205  159.8661 N.3     1  UNL1       -0.2720
     11 C         138.9108  139.1376  160.0066 C.3     1  UNL1        0.0768
     12 C         139.2487  138.3885  161.2614 C.3     1  UNL1        0.0433
     13 C         140.0732  141.1579  170.4761 C.3     1  UNL1        0.0754
     14 C         139.4264  140.4189  169.3423 C.ar    1  UNL1        0.1548
     15 C         139.8487  140.4669  167.9037 C.ar    1  UNL1        0.0580
     16 C         138.9271  139.5797  167.1203 C.ar    1  UNL1        0.1227
     17 N         137.9353  138.9834  168.0748 N.ar    1  UNL1       -0.0774
     18 O         138.2440  139.5021  169.4479 O.2     1  UNL1       -0.3578
     19 C         139.1589  141.8187  157.7671 C.3     1  UNL1        0.0294
     20 C         139.4169  143.2269  158.2149 C.3     1  UNL1        0.0666
     21 S         140.7218  143.5801  158.8646 S.3     1  UNL1       -0.0756
     22 C         140.9376  143.2899  160.3204 C.ar    1  UNL1        0.1932
     23 N         140.5368  144.1735  161.4644 N.ar    1  UNL1       -0.1221
     24 N         140.9435  143.4949  162.7388 N.ar    1  UNL1       -0.1282
     25 C         141.5957  142.1919  162.3824 C.ar    1  UNL1        0.1668
     26 N         141.5920  142.0652  160.8877 N.ar    1  UNL1       -0.2884
     27 C         142.1456  140.9157  160.0990 C.3     1  UNL1        0.1340
     28 C         142.1535  141.1913  163.3507 C.ar    1  UNL1        0.0360
     29 C         142.5564  139.8281  162.8717 C.ar    1  UNL1        0.0037
     30 C         143.1142  138.8275  163.8400 C.ar    1  UNL1        0.0104
     31 C         143.2693  139.1900  165.2872 C.ar    1  UNL1        0.0685
     32 C         142.8665  140.5533  165.7662 C.ar    1  UNL1        0.0104
     33 C         142.3086  141.5539  164.7979 C.ar    1  UNL1        0.0037
     34 C         143.8272  138.1894  166.2555 C.1     1  UNL1        0.1004
     35 N         144.3850  137.1888  167.2238 N.1     1  UNL1       -0.1908
@<TRIPOS>BOND
     1    13    14    1
     2    14    15   ar
     3    15    16   ar
     4    16     2    1
     5     2     3   ar
     6     3     4   ar
     7     4     5   ar
     8     5     6   ar
     9     6     7   ar
    10     6     8    1
    11     8     9    1
    12     9    10    1
    13    10     1    1
    14     1    19    1
    15    19    20    1
    16    20    21    1
    17    21    22    1
    18    22    23   ar
    19    23    24   ar
    20    24    25   ar
    21    25    28    1
    22    28    29   ar
    23    29    30   ar
    24    30    31   ar
    25    31    34    1
    26    34    35    3
    27    31    32   ar
    28    32    33   ar
    29    25    26   ar
    30    26    27    1
    31    10    11    1
    32    11    12    1
    33    16    17   ar
    34    17    18   ar
    35    18    14   ar
    36     7     2   ar
    37    26    22   ar
    38    12     5    1
    39    33    28   ar
@<TRIPOS>MOLECULE
*****
 35 39 0 0 0
SMALL
GASTEIGER

@<TRIPOS>ATOM
      1 C         140.2094  141.0690  158.1110 C.3     1  UNL1        0.0730
      2 C         139.0759  139.3093  165.2318 C.ar    1  UNL1        0.0206
      3 C         138.7907  137.9400  164.6900 C.ar    1  UNL1        0.0013
      4 C         138.8725  137.6853  163.2140 C.ar    1  UNL1       -0.0045
      5 C         139.2397  138.8001  162.2799 C.ar    1  UNL1       -0.0247
      6 C         139.5249  140.1693  162.8216 C.ar    1  UNL1       -0.0246
      7 C         139.4430  140.4240  164.2976 C.ar    1  UNL1       -0.0029
      8 C         139.9054  141.4114  162.0715 C.3     1  UNL1        0.0433
      9 C         140.0947  141.5907  160.5943 C.3     1  UNL1        0.0768
     10 N         139.9502  140.5724  159.5025 N.3     1  UNL1       -0.2720
     11 C         139.5807  139.1232  159.6181 C.3     1  UNL1        0.0768
     12 C         139.2645  138.3344  160.8541 C.3     1  UNL1        0.0433
     13 C         139.9438  141.3188  170.0369 C.3     1  UNL1        0.0754
     14 C         139.3929  140.4876  168.9165 C.ar    1  UNL1        0.1548
     15 C         139.7953  140.5743  167.4740 C.ar    1  UNL1        0.0580
     16 C         138.9940  139.5639  166.7077 C.ar    1  UNL1        0.1227
     17 N         138.0964  138.8529  167.6766 N.ar    1  UNL1       -0.0774
     18 O         138.3429  139.4237  169.0416 O.2     1  UNL1       -0.3578
     19 C         141.4251  141.9001  157.8255 C.3     1  UNL1        0.0294
     20 C         142.6018  141.2911  157.1223 C.3     1  UNL1        0.0666
     21 S         143.7595  140.7634  157.9169 S.3     1  UNL1       -0.0756
     22 C         143.5131  139.8978  159.1169 C.ar    1  UNL1        0.1932
     23 N         143.2051  138.4299  159.0970 N.ar    1  UNL1       -0.1221
     24 N         143.0331  137.9731  160.5153 N.ar    1  UNL1       -0.1282
     25 C         143.2348  139.1587  161.4118 C.ar    1  UNL1        0.1668
     26 N         143.5314  140.3483  160.5476 N.ar    1  UNL1       -0.2884
     27 C         143.7994  141.7433  161.0294 C.3     1  UNL1        0.1340
     28 C         143.1540  139.1553  162.9096 C.ar    1  UNL1        0.0360
     29 C         143.7276  140.2978  163.6943 C.ar    1  UNL1        0.0037
     30 C         143.6468  140.2944  165.1921 C.ar    1  UNL1        0.0104
     31 C         142.9924  139.1486  165.9053 C.ar    1  UNL1        0.0685
     32 C         142.4189  138.0060  165.1207 C.ar    1  UNL1        0.0104
     33 C         142.4997  138.0094  163.6229 C.ar    1  UNL1        0.0037
     34 C         142.9117  139.1452  167.4031 C.1     1  UNL1        0.1004
     35 N         142.8309  139.1418  168.9010 N.1     1  UNL1       -0.1908
@<TRIPOS>BOND
     1    13    14    1
     2    14    15   ar
     3    15    16   ar
     4    16     2    1
     5     2     3   ar
     6     3     4   ar
     7     4     5   ar
     8     5     6   ar
     9     6     7   ar
    10     6     8    1
    11     8     9    1
    12     9    10    1
    13    10     1    1
    14     1    19    1
    15    19    20    1
    16    20    21    1
    17    21    22    1
    18    22    23   ar
    19    23    24   ar
    20    24    25   ar
    21    25    28    1
    22    28    29   ar
    23    29    30   ar
    24    30    31   ar
    25    31    34    1
    26    34    35    3
    27    31    32   ar
    28    32    33   ar
    29    25    26   ar
    30    26    27    1
    31    10    11    1
    32    11    12    1
    33    16    17   ar
    34    17    18   ar
    35    18    14   ar
    36     7     2   ar
    37    26    22   ar
    38    12     5    1
    39    33    28   ar
@<TRIPOS>MOLECULE
*****
 35 39 0 0 0
SMALL
GASTEIGER

@<TRIPOS>ATOM
      1 C         144.8112  142.4506  159.8767 C.3     1  UNL1        0.0730
      2 C         142.5410  139.6095  166.3467 C.ar    1  UNL1        0.0206
      3 C         142.0810  138.4562  165.5050 C.ar    1  UNL1        0.0013
      4 C         142.2909  138.4808  164.0199 C.ar    1  UNL1       -0.0045
      5 C         142.9608  139.6588  163.3766 C.ar    1  UNL1       -0.0247
      6 C         143.4206  140.8120  164.2183 C.ar    1  UNL1       -0.0246
      7 C         143.2108  140.7874  165.7033 C.ar    1  UNL1       -0.0029
      8 C         144.1045  142.0739  163.7823 C.3     1  UNL1        0.0433
      9 C         144.4973  142.4941  162.3969 C.3     1  UNL1        0.0768
     10 N         144.3033  141.7563  161.1056 N.3     1  UNL1       -0.2720
     11 C         143.6686  140.4160  160.8803 C.3     1  UNL1        0.0768
     12 C         143.0711  139.4825  161.8911 C.3     1  UNL1        0.0433
     13 C         140.6350  140.6181  171.1665 C.3     1  UNL1        0.0754
     14 C         141.4550  140.0484  170.0472 C.ar    1  UNL1        0.1548
     15 C         141.3127  140.3820  168.5916 C.ar    1  UNL1        0.0580
     16 C         142.3310  139.5848  167.8317 C.ar    1  UNL1        0.1227
     17 N         143.1027  138.7586  168.8176 N.ar    1  UNL1       -0.0774
     18 O         142.5613  139.0451  170.1867 O.2     1  UNL1       -0.3578
     19 C         143.9880  142.4538  158.6227 C.3     1  UNL1        0.0294
     20 C         143.1495  143.6491  158.2790 C.3     1  UNL1        0.0666
     21 S         141.7251  143.7245  158.7430 S.3     1  UNL1       -0.0756
     22 C         141.3997  143.5499  160.1969 C.ar    1  UNL1        0.1932
     23 N         141.7380  144.5111  161.2976 N.ar    1  UNL1       -0.1221
     24 N         141.2263  143.9389  162.5863 N.ar    1  UNL1       -0.1282
     25 C         140.5717  142.6240  162.2820 C.ar    1  UNL1        0.1668
     26 N         140.6789  142.3836  160.8052 N.ar    1  UNL1       -0.2884
     27 C         140.1569  141.1870  160.0666 C.3     1  UNL1        0.1340
     28 C         139.9238  141.7100  163.2793 C.ar    1  UNL1        0.0360
     29 C         139.8705  142.0970  164.7275 C.ar    1  UNL1        0.0037
     30 C         139.2225  141.1830  165.7248 C.ar    1  UNL1        0.0104
     31 C         138.6278  139.8819  165.2740 C.ar    1  UNL1        0.0685
     32 C         138.6811  139.4948  163.8258 C.ar    1  UNL1        0.0104
     33 C         139.3290  140.4088  162.8285 C.ar    1  UNL1        0.0037
     34 C         137.9798  138.9678  166.2713 C.1     1  UNL1        0.1004
     35 N         137.3319  138.0538  167.2686 N.1     1  UNL1       -0.1908
@<TRIPOS>BOND
     1    13    14    1
     2    14    15   ar
     3    15    16   ar
     4    16     2    1
     5     2     3   ar
     6     3     4   ar
     7     4     5   ar
     8     5     6   ar
     9     6     7   ar
    10     6     8    1
    11     8     9    1
    12     9    10    1
    13    10     1    1
    14     1    19    1
    15    19    20    1
    16    20    21    1
    17    21    22    1
    18    22    23   ar
    19    23    24   ar
    20    24    25   ar
    21    25    28    1
    22    28    29   ar
    23    29    30   ar
    24    30    31   ar
    25    31    34    1
    26    34    35    3
    27    31    32   ar
    28    32    33   ar
    29    25    26   ar
    30    26    27    1
    31    10    11    1
    32    11    12    1
    33    16    17   ar
    34    17    18   ar
    35    18    14   ar
    36     7     2   ar
    37    26    22   ar
    38    12     5    1
    39    33    28   ar
@<TRIPOS>MOLECULE
*****
 35 39 0 0 0
SMALL
GASTEIGER

@<TRIPOS>ATOM
      1 C         138.3150  141.8620  159.2598 C.3     1  UNL1        0.0730
      2 C         139.0738  139.9846  166.4002 C.ar    1  UNL1        0.0206
      3 C         139.0312  138.5791  165.8777 C.ar    1  UNL1        0.0013
      4 C         138.8801  138.3304  164.4061 C.ar    1  UNL1       -0.0045
      5 C         138.7717  139.4870  163.4572 C.ar    1  UNL1       -0.0247
      6 C         138.8143  140.8923  163.9798 C.ar    1  UNL1       -0.0246
      7 C         138.9654  141.1412  165.4512 C.ar    1  UNL1       -0.0029
      8 C         138.7238  142.1784  163.2130 C.3     1  UNL1        0.0433
      9 C         138.5682  142.3767  161.7343 C.3     1  UNL1        0.0768
     10 N         138.4648  141.3379  160.6572 N.3     1  UNL1       -0.2720
     11 C         138.4914  139.8443  160.7927 C.3     1  UNL1        0.0768
     12 C         138.6279  139.0205  162.0388 C.3     1  UNL1        0.0433
     13 C         140.6819  141.9794  171.0170 C.3     1  UNL1        0.0754
     14 C         139.9640  141.1502  169.9939 C.ar    1  UNL1        0.1548
     15 C         140.1336  141.2439  168.5063 C.ar    1  UNL1        0.0580
     16 C         139.2249  140.2333  167.8717 C.ar    1  UNL1        0.1227
     17 N         138.4937  139.5149  168.9669 N.ar    1  UNL1       -0.0774
     18 O         138.9506  140.0816  170.2784 O.2     1  UNL1       -0.3578
     19 C         139.4765  141.8131  158.3118 C.3     1  UNL1        0.0294
     20 C         140.6786  142.6773  158.5531 C.3     1  UNL1        0.0666
     21 S         142.0051  142.0482  158.8602 S.3     1  UNL1       -0.0756
     22 C         142.1111  141.0088  159.9365 C.ar    1  UNL1        0.1932
     23 N         142.1080  139.5230  159.7308 N.ar    1  UNL1       -0.1221
     24 N         142.2337  138.8687  161.0747 N.ar    1  UNL1       -0.1282
     25 C         142.3145  139.9501  162.1110 C.ar    1  UNL1        0.1668
     26 N         142.2387  141.2729  161.4076 N.ar    1  UNL1       -0.2884
     27 C         142.2828  142.6225  162.0606 C.3     1  UNL1        0.1340
     28 C         142.4477  139.7449  163.5909 C.ar    1  UNL1        0.0360
     29 C         142.4851  138.3556  164.1551 C.ar    1  UNL1        0.0037
     30 C         142.6183  138.1504  165.6350 C.ar    1  UNL1        0.0104
     31 C         142.7141  139.3345  166.5508 C.ar    1  UNL1        0.0685
     32 C         142.6767  140.7238  165.9866 C.ar    1  UNL1        0.0104
     33 C         142.5435  140.9290  164.5067 C.ar    1  UNL1        0.0037
     34 C         142.8473  139.1293  168.0307 C.1     1  UNL1        0.1004
     35 N         142.9805  138.9241  169.5106 N.1     1  UNL1       -0.1908
@<TRIPOS>BOND
     1    13    14    1
     2    14    15   ar
     3    15    16   ar
     4    16     2    1
     5     2     3   ar
     6     3     4   ar
     7     4     5   ar
     8     5     6   ar
     9     6     7   ar
    10     6     8    1
    11     8     9    1
    12     9    10    1
    13    10     1    1
    14     1    19    1
    15    19    20    1
    16    20    21    1
    17    21    22    1
    18    22    23   ar
    19    23    24   ar
    20    24    25   ar
    21    25    28    1
    22    28    29   ar
    23    29    30   ar
    24    30    31   ar
    25    31    34    1
    26    34    35    3
    27    31    32   ar
    28    32    33   ar
    29    25    26   ar
    30    26    27    1
    31    10    11    1
    32    11    12    1
    33    16    17   ar
    34    17    18   ar
    35    18    14   ar
    36     7     2   ar
    37    26    22   ar
    38    12     5    1
    39    33    28   ar
@<TRIPOS>MOLECULE
*****
 35 39 0 0 0
SMALL
GASTEIGER

@<TRIPOS>ATOM
      1 C         143.4693  142.3900  169.6876 C.3     1  UNL1        0.0730
      2 C         143.0940  139.5946  162.8224 C.ar    1  UNL1        0.0206
      3 C         142.6992  138.3285  163.5233 C.ar    1  UNL1        0.0013
      4 C         142.6025  138.2987  165.0199 C.ar    1  UNL1       -0.0045
      5 C         142.9007  139.5349  165.8156 C.ar    1  UNL1       -0.0247
      6 C         143.2955  140.8008  165.1146 C.ar    1  UNL1       -0.0246
      7 C         143.3922  140.8307  163.6181 C.ar    1  UNL1       -0.0029
      8 C         143.6326  142.1347  165.7122 C.3     1  UNL1        0.0433
      9 C         143.6582  142.5320  167.1585 C.3     1  UNL1        0.0768
     10 N         143.3529  141.6935  168.3642 N.3     1  UNL1       -0.2720
     11 C         142.9467  140.2507  168.4215 C.3     1  UNL1        0.0768
     12 C         142.7454  139.2900  167.2873 C.3     1  UNL1        0.0433
     13 C         142.2273  140.8087  157.7573 C.3     1  UNL1        0.0754
     14 C         142.7923  140.1824  158.9976 C.ar    1  UNL1        0.1548
     15 C         142.3621  140.4708  160.4054 C.ar    1  UNL1        0.0580
     16 C         143.1907  139.6244  161.3258 C.ar    1  UNL1        0.1227
     17 N         144.1329  138.8129  160.4868 N.ar    1  UNL1       -0.0774
     18 O         143.8867  139.1579  159.0480 O.2     1  UNL1       -0.3578
     19 C         142.2742  143.0738  170.2829 C.3     1  UNL1        0.0294
     20 C         141.1627  142.2601  170.8765 C.3     1  UNL1        0.0666
     21 S         139.8092  142.2551  170.2302 S.3     1  UNL1       -0.0756
     22 C         139.4648  141.2022  169.2188 C.ar    1  UNL1        0.1932
     23 N         138.8419  139.8693  169.5108 N.ar    1  UNL1       -0.1221
     24 N         138.6750  139.1407  168.2104 N.ar    1  UNL1       -0.1282
     25 C         139.1949  140.0233  167.1146 C.ar    1  UNL1        0.1668
     26 N         139.6830  141.2974  167.7378 N.ar    1  UNL1       -0.2884
     27 C         140.2838  142.4622  167.0082 C.3     1  UNL1        0.1340
     28 C         139.2219  139.6903  165.6523 C.ar    1  UNL1        0.0360
     29 C         139.5208  140.7606  164.6447 C.ar    1  UNL1        0.0037
     30 C         139.5478  140.4276  163.1824 C.ar    1  UNL1        0.0104
     31 C         139.2759  139.0244  162.7275 C.ar    1  UNL1        0.0685
     32 C         138.9770  137.9541  163.7351 C.ar    1  UNL1        0.0104
     33 C         138.9500  138.2871  165.1974 C.ar    1  UNL1        0.0037
     34 C         139.3029  138.6914  161.2652 C.1     1  UNL1        0.1004
     35 N         139.3299  138.3584  159.8029 N.1     1  UNL1       -0.1908
@<TRIPOS>BOND
     1    13    14    1
     2    14    15   ar
     3    15    16   ar
     4    16     2    1
     5     2     3   ar
     6     3     4   ar
     7     4     5   ar
     8     5     6   ar
     9     6     7   ar
    10     6     8    1
    11     8     9    1
    12     9    10    1
    13    10     1    1
    14     1    19    1
    15    19    20    1
    16    20    21    1
    17    21    22    1
    18    22    23   ar
    19    23    24   ar
    20    24    25   ar
    21    25    28    1
    22    28    29   ar
    23    29    30   ar
    24    30    31   ar
    25    31    34    1
    26    34    35    3
    27    31    32   ar
    28    32    33   ar
    29    25    26   ar
    30    26    27    1
    31    10    11    1
    32    11    12    1
    33    16    17   ar
    34    17    18   ar
    35    18    14   ar
    36     7     2   ar
    37    26    22   ar
    38    12     5    1
    39    33    28   ar
@<TRIPOS>MOLECULE
*****
 35 39 0 0 0
SMALL
GASTEIGER

@<TRIPOS>ATOM
      1 C         141.1032  145.4921  159.6925 C.3     1  UNL1        0.0730
      2 C         141.4055  142.5290  166.4907 C.ar    1  UNL1        0.0206
      3 C         140.0059  143.0538  166.6162 C.ar    1  UNL1        0.0013
      4 C         139.3760  143.7914  165.4719 C.ar    1  UNL1       -0.0045
      5 C         140.1458  144.0040  164.2021 C.ar    1  UNL1       -0.0247
      6 C         141.5453  143.4792  164.0767 C.ar    1  UNL1       -0.0246
      7 C         142.1752  142.7417  165.2209 C.ar    1  UNL1       -0.0029
      8 C         142.4811  143.5809  162.9087 C.3     1  UNL1        0.0433
      9 C         142.2483  144.2326  161.5778 C.3     1  UNL1        0.0768
     10 N         141.0224  144.9435  161.0862 N.3     1  UNL1       -0.2720
     11 C         139.7264  145.1783  161.8040 C.3     1  UNL1        0.0768
     12 C         139.3362  144.7602  163.1907 C.3     1  UNL1        0.0433
     13 C         142.5905  138.7565  169.9899 C.3     1  UNL1        0.0754
     14 C         142.5800  140.0575  169.2434 C.ar    1  UNL1        0.1548
     15 C         141.7185  140.3885  168.0608 C.ar    1  UNL1        0.0580
     16 C         142.0353  141.7915  167.6349 C.ar    1  UNL1        0.1227
     17 N         143.0924  142.3275  168.5543 N.ar    1  UNL1       -0.0774
     18 O         143.4290  141.2558  169.5483 O.2     1  UNL1       -0.3578
     19 C         141.6076  144.6285  158.5745 C.3     1  UNL1        0.0294
     20 C         140.6399  143.8526  157.7308 C.3     1  UNL1        0.0666
     21 S         140.5621  142.3602  157.8592 S.3     1  UNL1       -0.0756
     22 C         140.8791  141.7026  159.1695 C.ar    1  UNL1        0.1932
     23 N         142.2102  141.1431  159.5760 N.ar    1  UNL1       -0.1221
     24 N         142.0745  140.5837  160.9611 N.ar    1  UNL1       -0.1282
     25 C         140.6595  140.7974  161.4107 C.ar    1  UNL1        0.1668
     26 N         139.9207  141.4889  160.3035 N.ar    1  UNL1       -0.2884
     27 C         138.4770  141.8954  160.3262 C.3     1  UNL1        0.1340
     28 C         140.0843  140.3910  162.7351 C.ar    1  UNL1        0.0360
     29 C         140.8870  139.5368  163.6711 C.ar    1  UNL1        0.0037
     30 C         140.3118  139.1304  164.9954 C.ar    1  UNL1        0.0104
     31 C         138.9339  139.5781  165.3839 C.ar    1  UNL1        0.0685
     32 C         138.1312  140.4323  164.4479 C.ar    1  UNL1        0.0104
     33 C         138.7064  140.8387  163.1235 C.ar    1  UNL1        0.0037
     34 C         138.3587  139.1717  166.7082 C.1     1  UNL1        0.1004
     35 N         137.7834  138.7653  168.0326 N.1     1  UNL1       -0.1908
@<TRIPOS>BOND
     1    13    14    1
     2    14    15   ar
     3    15    16   ar
     4    16     2    1
     5     2     3   ar
     6     3     4   ar
     7     4     5   ar
     8     5     6   ar
     9     6     7   ar
    10     6     8    1
    11     8     9    1
    12     9    10    1
    13    10     1    1
    14     1    19    1
    15    19    20    1
    16    20    21    1
    17    21    22    1
    18    22    23   ar
    19    23    24   ar
    20    24    25   ar
    21    25    28    1
    22    28    29   ar
    23    29    30   ar
    24    30    31   ar
    25    31    34    1
    26    34    35    3
    27    31    32   ar
    28    32    33   ar
    29    25    26   ar
    30    26    27    1
    31    10    11    1
    32    11    12    1
    33    16    17   ar
    34    17    18   ar
    35    18    14   ar
    36     7     2   ar
    37    26    22   ar
    38    12     5    1
    39    33    28   ar
@<TRIPOS>MOLECULE
*****
 35 39 0 0 0
SMALL
GASTEIGER

@<TRIPOS>ATOM
      1 C         142.0687  144.9637  158.9393 C.3     1  UNL1        0.0730
      2 C         140.5147  143.0879  165.9503 C.ar    1  UNL1        0.0206
      3 C         139.3783  144.0549  165.7966 C.ar    1  UNL1        0.0013
      4 C         139.1835  144.7834  164.4999 C.ar    1  UNL1       -0.0045
      5 C         140.1251  144.5448  163.3568 C.ar    1  UNL1       -0.0247
      6 C         141.2613  143.5779  163.5105 C.ar    1  UNL1       -0.0246
      7 C         141.4562  142.8494  164.8071 C.ar    1  UNL1       -0.0029
      8 C         142.3070  143.1960  162.5050 C.3     1  UNL1        0.0433
      9 C         142.4744  143.6870  161.0974 C.3     1  UNL1        0.0768
     10 N         141.6376  144.6809  160.3479 N.3     1  UNL1       -0.2720
     11 C         140.4267  145.4294  160.8207 C.3     1  UNL1        0.0768
     12 C         139.7536  145.3689  162.1598 C.3     1  UNL1        0.0433
     13 C         140.7147  141.9860  171.1103 C.3     1  UNL1        0.0754
     14 C         140.8015  141.8530  169.6188 C.ar    1  UNL1        0.1548
     15 C         140.4877  142.9257  168.6182 C.ar    1  UNL1        0.0580
     16 C         140.7095  142.3595  167.2470 C.ar    1  UNL1        0.1227
     17 N         141.1603  140.9371  167.4000 N.ar    1  UNL1       -0.0774
     18 O         141.2171  140.6241  168.8659 O.2     1  UNL1       -0.3578
     19 C         142.6160  143.8580  158.0861 C.3     1  UNL1        0.0294
     20 C         141.8031  143.3165  156.9477 C.3     1  UNL1        0.0666
     21 S         140.8037  142.2251  157.1923 S.3     1  UNL1       -0.0756
     22 C         139.9431  142.2577  158.4205 C.ar    1  UNL1        0.1932
     23 N         138.7303  143.1163  158.6248 N.ar    1  UNL1       -0.1221
     24 N         138.1819  142.8267  159.9906 N.ar    1  UNL1       -0.1282
     25 C         139.0559  141.7890  160.6304 C.ar    1  UNL1        0.1668
     26 N         140.1444  141.4373  159.6601 N.ar    1  UNL1       -0.2884
     27 C         141.2415  140.4404  159.8892 C.3     1  UNL1        0.1340
     28 C         138.8734  141.2055  162.0001 C.ar    1  UNL1        0.0360
     29 C         137.7805  141.7143  162.8927 C.ar    1  UNL1        0.0037
     30 C         137.5980  141.1308  164.2624 C.ar    1  UNL1        0.0104
     31 C         138.5084  140.0384  164.7397 C.ar    1  UNL1        0.0685
     32 C         139.6013  139.5295  163.8471 C.ar    1  UNL1        0.0104
     33 C         139.7838  140.1130  162.4774 C.ar    1  UNL1        0.0037
     34 C         138.3259  139.4548  166.1094 C.1     1  UNL1        0.1004
     35 N         138.1434  138.8712  167.4791 N.1     1  UNL1       -0.1908
@<TRIPOS>BOND
     1    13    14    1
     2    14    15   ar
     3    15    16   ar
     4    16     2    1
     5     2     3   ar
     6     3     4   ar
     7     4     5   ar
     8     5     6   ar
     9     6     7   ar
    10     6     8    1
    11     8     9    1
    12     9    10    1
    13    10     1    1
    14     1    19    1
    15    19    20    1
    16    20    21    1
    17    21    22    1
    18    22    23   ar
    19    23    24   ar
    20    24    25   ar
    21    25    28    1
    22    28    29   ar
    23    29    30   ar
    24    30    31   ar
    25    31    34    1
    26    34    35    3
    27    31    32   ar
    28    32    33   ar
    29    25    26   ar
    30    26    27    1
    31    10    11    1
    32    11    12    1
    33    16    17   ar
    34    17    18   ar
    35    18    14   ar
    36     7     2   ar
    37    26    22   ar
    38    12     5    1
    39    33    28   ar
