@<TRIPOS>MOLECULE
*****
 43 48 0 0 0
SMALL
GASTEIGER

@<TRIPOS>ATOM
      1 C         140.9717  138.8817  159.5403 C.2     1  UNL1        0.2495
      2 O         140.7232  138.0144  160.7387 O.2     1  UNL1       -0.2699
      3 N         140.9684  140.3751  159.6817 N.am    1  UNL1       -0.2674
      4 C         141.2001  141.3656  158.5793 C.3     1  UNL1        0.1185
      5 C         141.1077  142.7428  159.1665 C.3     1  UNL1        0.1288
      6 C         140.8189  142.6034  160.6318 C.3     1  UNL1        0.0554
      7 C         140.7328  141.1401  160.9502 C.3     1  UNL1        0.1540
      8 C         142.8787  137.4892  156.3506 C.ar    1  UNL1        0.1361
      9 C         142.6270  138.1153  157.6903 C.ar    1  UNL1        0.0411
     10 C         141.2235  138.2557  158.2007 C.ar    1  UNL1        0.0566
     11 C         140.0717  137.7702  157.3713 C.ar    1  UNL1        0.0044
     12 C         140.3235  137.1442  156.0317 C.ar    1  UNL1        0.0002
     13 C         141.7270  137.0037  155.5213 C.ar    1  UNL1        0.0274
     14 C         141.9788  136.3777  154.1817 C.3     1  UNL1        0.0952
     15 N         142.9407  135.2335  154.0574 N.3     1  UNL1       -0.3174
     16 H         143.8834  135.5567  154.2746 H       1  UNL1        0.1192
     17 H         142.9167  134.8711  153.1042 H       1  UNL1        0.1192
     18 C         144.9292  138.4835  155.1027 C.3     1  UNL1        0.2525
     19 O         144.2822  137.3487  155.8403 O.3     1  UNL1       -0.4717
     20 N         141.2748  144.0327  158.4195 N.ar    1  UNL1       -0.2307
     21 C         140.3232  144.5937  157.4048 C.ar    1  UNL1        0.1131
     22 C         140.8832  145.8959  156.9143 C.ar    1  UNL1        0.1005
     23 N         142.1809  146.1399  157.6259 N.ar    1  UNL1       -0.1332
     24 N         142.4230  144.9883  158.5562 N.ar    1  UNL1       -0.0641
     25 C         140.2556  146.7962  155.8917 C.3     1  UNL1        0.0437
     26 C         140.2403  147.3811  154.5106 C.3     1  UNL1        0.0064
     27 C         139.1839  147.7705  155.5017 C.3     1  UNL1        0.0064
     28 C         140.4591  140.5462  162.3001 C.2     1  UNL1        0.2406
     29 O         141.5471  140.4950  163.3316 O.2     1  UNL1       -0.2733
     30 N         139.0976  140.0034  162.6188 N.am    1  UNL1       -0.3043
     31 H         138.3835  140.0370  161.9419 H       1  UNL1        0.1494
     32 C         138.8240  139.4095  163.9687 C.3     1  UNL1        0.0756
     33 C         138.7691  137.9198  164.1355 C.3     1  UNL1        0.0199
     34 C         138.4955  137.3259  165.4855 C.3     1  UNL1        0.0017
     35 C         138.2767  138.2216  166.6686 C.3     1  UNL1        0.0004
     36 C         138.3316  139.7113  166.5018 C.3     1  UNL1        0.0060
     37 C         138.6052  140.3052  165.1519 C.3     1  UNL1        0.0403
     38 C         138.6600  141.7949  164.9850 C.ar    1  UNL1       -0.0209
     39 C         139.7960  142.5746  165.5779 C.ar    1  UNL1       -0.0042
     40 C         139.8509  144.0644  165.4111 C.ar    1  UNL1       -0.0003
     41 C         138.7699  144.7743  164.6514 C.ar    1  UNL1       -0.0000
     42 C         137.6338  143.9946  164.0584 C.ar    1  UNL1       -0.0003
     43 C         137.5790  142.5049  164.2253 C.ar    1  UNL1       -0.0042
@<TRIPOS>BOND
     1    18    19    1
     2    19     8    1
     3     8     9   ar
     4     9    10   ar
     5    10     1    1
     6     1     2    2
     7     1     3   am
     8     3     4    1
     9     4     5    1
    10     5    20    1
    11    20    21   ar
    12    21    22   ar
    13    22    25    1
    14    25    26    1
    15    26    27    1
    16    22    23   ar
    17    23    24   ar
    18     5     6    1
    19     6     7    1
    20     7    28    1
    21    28    29    2
    22    28    30   am
    23    32    30    1
    24    32    33    1
    25    33    34    1
    26    34    35    1
    27    35    36    1
    28    36    37    1
    29    37    38    1
    30    38    39   ar
    31    39    40   ar
    32    40    41   ar
    33    41    42   ar
    34    42    43   ar
    35    10    11   ar
    36    11    12   ar
    37    12    13   ar
    38    13    14    1
    39    14    15    1
    40    13     8   ar
    41     7     3    1
    42    37    32    1
    43    43    38   ar
    44    24    20   ar
    45    27    25    1
    46    30    31    1
    47    15    16    1
    48    15    17    1
@<TRIPOS>MOLECULE
*****
 43 48 0 0 0
SMALL
GASTEIGER

@<TRIPOS>ATOM
      1 C         141.0588  138.7890  159.5314 C.2     1  UNL1        0.2495
      2 O         140.8064  137.9190  160.7271 O.2     1  UNL1       -0.2699
      3 N         141.0332  140.2822  159.6717 N.am    1  UNL1       -0.2674
      4 C         141.2659  141.2752  158.5718 C.3     1  UNL1        0.1185
      5 C         141.1470  142.6513  159.1567 C.3     1  UNL1        0.1288
      6 C         140.8408  142.5088  160.6182 C.3     1  UNL1        0.0554
      7 C         140.7705  141.0446  160.9365 C.3     1  UNL1        0.1540
      8 C         140.4773  137.1105  155.9825 C.ar    1  UNL1        0.1361
      9 C         140.1993  137.7337  157.3184 C.ar    1  UNL1        0.0411
     10 C         141.3367  138.1658  158.1957 C.ar    1  UNL1        0.0566
     11 C         142.7521  137.9747  157.7371 C.ar    1  UNL1        0.0044
     12 C         143.0300  137.3515  156.4013 C.ar    1  UNL1        0.0002
     13 C         141.8926  136.9194  155.5240 C.ar    1  UNL1        0.0274
     14 C         142.1705  136.2962  154.1883 C.3     1  UNL1        0.0952
     15 N         141.6411  134.9284  153.8741 N.3     1  UNL1       -0.3174
     16 H         142.0915  134.2421  154.4796 H       1  UNL1        0.1192
     17 H         141.8386  134.7030  152.8991 H       1  UNL1        0.1192
     18 C         138.6378  137.6818  154.2390 C.3     1  UNL1        0.2525
     19 O         139.3399  136.6784  155.1053 O.3     1  UNL1       -0.4717
     20 N         141.3062  143.9431  158.4111 N.ar    1  UNL1       -0.2307
     21 C         140.3301  144.5207  157.4295 C.ar    1  UNL1        0.1131
     22 C         140.8903  145.8186  156.9280 C.ar    1  UNL1        0.1005
     23 N         142.2125  146.0433  157.5996 N.ar    1  UNL1       -0.1332
     24 N         142.4697  144.8841  158.5163 N.ar    1  UNL1       -0.0641
     25 C         140.2419  146.7317  155.9300 C.3     1  UNL1        0.0437
     26 C         140.2299  147.3775  154.5762 C.3     1  UNL1        0.0064
     27 C         139.1310  147.6672  155.5552 C.3     1  UNL1        0.0064
     28 C         140.4872  140.4477  162.2831 C.2     1  UNL1        0.2406
     29 O         141.5872  140.3255  163.2957 O.2     1  UNL1       -0.2733
     30 N         139.1041  139.9730  162.6173 N.am    1  UNL1       -0.3043
     31 H         138.3822  140.0532  161.9527 H       1  UNL1        0.1494
     32 C         138.8209  139.3761  163.9638 C.3     1  UNL1        0.0756
     33 C         138.7406  137.8866  164.1221 C.3     1  UNL1        0.0199
     34 C         138.4573  137.2897  165.4688 C.3     1  UNL1        0.0017
     35 C         138.2544  138.1822  166.6572 C.3     1  UNL1        0.0004
     36 C         138.3348  139.6717  166.4988 C.3     1  UNL1        0.0060
     37 C         138.6180  140.2686  165.1523 C.3     1  UNL1        0.0403
     38 C         138.6984  141.7580  164.9940 C.ar    1  UNL1       -0.0209
     39 C         139.8822  142.5065  165.5308 C.ar    1  UNL1       -0.0042
     40 C         139.9626  143.9960  165.3725 C.ar    1  UNL1       -0.0003
     41 C         138.8592  144.7370  164.6774 C.ar    1  UNL1       -0.0000
     42 C         137.6752  143.9885  164.1405 C.ar    1  UNL1       -0.0003
     43 C         137.5949  142.4991  164.2988 C.ar    1  UNL1       -0.0042
@<TRIPOS>BOND
     1    18    19    1
     2    19     8    1
     3     8     9   ar
     4     9    10   ar
     5    10     1    1
     6     1     2    2
     7     1     3   am
     8     3     4    1
     9     4     5    1
    10     5    20    1
    11    20    21   ar
    12    21    22   ar
    13    22    25    1
    14    25    26    1
    15    26    27    1
    16    22    23   ar
    17    23    24   ar
    18     5     6    1
    19     6     7    1
    20     7    28    1
    21    28    29    2
    22    28    30   am
    23    32    30    1
    24    32    33    1
    25    33    34    1
    26    34    35    1
    27    35    36    1
    28    36    37    1
    29    37    38    1
    30    38    39   ar
    31    39    40   ar
    32    40    41   ar
    33    41    42   ar
    34    42    43   ar
    35    10    11   ar
    36    11    12   ar
    37    12    13   ar
    38    13    14    1
    39    14    15    1
    40    13     8   ar
    41     7     3    1
    42    37    32    1
    43    43    38   ar
    44    24    20   ar
    45    27    25    1
    46    30    31    1
    47    15    16    1
    48    15    17    1
@<TRIPOS>MOLECULE
*****
 43 48 0 0 0
SMALL
GASTEIGER

@<TRIPOS>ATOM
      1 C         138.3827  141.8865  158.2956 C.2     1  UNL1        0.2495
      2 O         138.1000  142.8823  159.3813 O.2     1  UNL1       -0.2699
      3 N         139.5314  140.9319  158.4341 N.am    1  UNL1       -0.2674
      4 C         139.9342  139.8865  157.4367 C.3     1  UNL1        0.1185
      5 C         141.1307  139.1635  157.9805 C.3     1  UNL1        0.1288
      6 C         141.4674  139.7620  159.3141 C.3     1  UNL1        0.0554
      7 C         140.4789  140.8550  159.5944 C.3     1  UNL1        0.1540
      8 C         135.6175  140.7280  155.6954 C.ar    1  UNL1        0.1361
      9 C         136.4834  140.7690  156.9196 C.ar    1  UNL1        0.0411
     10 C         137.5169  141.8455  157.0715 C.ar    1  UNL1        0.0566
     11 C         137.6845  142.8810  155.9992 C.ar    1  UNL1        0.0044
     12 C         136.8186  142.8400  154.7750 C.ar    1  UNL1        0.0002
     13 C         135.7851  141.7635  154.6231 C.ar    1  UNL1        0.0274
     14 C         134.9192  141.7224  153.3990 C.3     1  UNL1        0.0952
     15 N         133.4634  141.3823  153.5211 N.3     1  UNL1       -0.3174
     16 H         133.3650  140.4159  153.8323 H       1  UNL1        0.1192
     17 H         133.0106  141.4952  152.6142 H       1  UNL1        0.1192
     18 C         133.5334  139.4663  156.5980 C.3     1  UNL1        0.2525
     19 O         134.5840  139.6515  155.5434 O.3     1  UNL1       -0.4717
     20 N         141.8621  138.0393  157.3087 N.ar    1  UNL1       -0.2307
     21 C         141.2340  136.8385  156.6656 C.ar    1  UNL1        0.1131
     22 C         142.3338  135.9757  156.1215 C.ar    1  UNL1        0.1005
     23 N         143.6415  136.6431  156.4284 N.ar    1  UNL1       -0.1332
     24 N         143.3501  137.9186  157.1622 N.ar    1  UNL1       -0.0641
     25 C         142.1568  134.6739  155.3976 C.3     1  UNL1        0.0437
     26 C         142.4127  133.8086  154.1994 C.3     1  UNL1        0.0064
     27 C         141.5943  133.2845  155.3420 C.3     1  UNL1        0.0064
     28 C         140.4442  141.7192  160.8199 C.2     1  UNL1        0.2406
     29 O         141.5353  142.7195  161.0635 O.2     1  UNL1       -0.2733
     30 N         139.3185  141.5835  161.8019 N.am    1  UNL1       -0.3043
     31 H         138.6024  140.9270  161.6421 H       1  UNL1        0.1494
     32 C         139.2838  142.4477  163.0273 C.3     1  UNL1        0.0756
     33 C         138.8982  143.8929  162.9152 C.3     1  UNL1        0.0199
     34 C         138.8634  144.7572  164.1407 C.3     1  UNL1        0.0017
     35 C         139.2143  144.1762  165.4783 C.3     1  UNL1        0.0004
     36 C         139.5999  142.7310  165.5905 C.3     1  UNL1        0.0060
     37 C         139.6346  141.8668  164.3651 C.3     1  UNL1        0.0403
     38 C         140.0202  140.4215  164.4772 C.ar    1  UNL1       -0.0209
     39 C         141.4344  139.9996  164.2089 C.ar    1  UNL1       -0.0042
     40 C         141.8201  138.5543  164.3211 C.ar    1  UNL1       -0.0003
     41 C         140.7916  137.5310  164.7015 C.ar    1  UNL1       -0.0000
     42 C         139.3773  137.9529  164.9698 C.ar    1  UNL1       -0.0003
     43 C         138.9917  139.3981  164.8577 C.ar    1  UNL1       -0.0042
@<TRIPOS>BOND
     1    18    19    1
     2    19     8    1
     3     8     9   ar
     4     9    10   ar
     5    10     1    1
     6     1     2    2
     7     1     3   am
     8     3     4    1
     9     4     5    1
    10     5    20    1
    11    20    21   ar
    12    21    22   ar
    13    22    25    1
    14    25    26    1
    15    26    27    1
    16    22    23   ar
    17    23    24   ar
    18     5     6    1
    19     6     7    1
    20     7    28    1
    21    28    29    2
    22    28    30   am
    23    32    30    1
    24    32    33    1
    25    33    34    1
    26    34    35    1
    27    35    36    1
    28    36    37    1
    29    37    38    1
    30    38    39   ar
    31    39    40   ar
    32    40    41   ar
    33    41    42   ar
    34    42    43   ar
    35    10    11   ar
    36    11    12   ar
    37    12    13   ar
    38    13    14    1
    39    14    15    1
    40    13     8   ar
    41     7     3    1
    42    37    32    1
    43    43    38   ar
    44    24    20   ar
    45    27    25    1
    46    30    31    1
    47    15    16    1
    48    15    17    1
@<TRIPOS>MOLECULE
*****
 43 48 0 0 0
SMALL
GASTEIGER

@<TRIPOS>ATOM
      1 C         140.0351  142.6653  159.9698 C.2     1  UNL1        0.2495
      2 O         139.4410  143.0274  161.2988 O.2     1  UNL1       -0.2699
      3 N         140.7086  141.3376  159.7861 N.am    1  UNL1       -0.2674
      4 C         141.3448  140.8390  158.5226 C.3     1  UNL1        0.1185
      5 C         141.8935  139.4687  158.7892 C.3     1  UNL1        0.1288
      6 C         141.5963  139.1203  160.2176 C.3     1  UNL1        0.0554
      7 C         140.8640  140.2753  160.8337 C.3     1  UNL1        0.1540
      8 C         139.0379  144.2694  156.4795 C.ar    1  UNL1        0.1361
      9 C         139.1172  143.3038  157.6247 C.ar    1  UNL1        0.0411
     10 C         139.9557  143.6308  158.8247 C.ar    1  UNL1        0.0566
     11 C         140.7148  144.9234  158.8795 C.ar    1  UNL1        0.0044
     12 C         140.6354  145.8889  157.7344 C.ar    1  UNL1        0.0002
     13 C         139.7970  145.5619  156.5344 C.ar    1  UNL1        0.0274
     14 C         139.7176  146.5275  155.3892 C.3     1  UNL1        0.0952
     15 N         138.3807  146.9733  154.8754 N.3     1  UNL1       -0.3174
     16 H         137.8928  146.1783  154.4625 H       1  UNL1        0.1192
     17 H         138.5122  147.6962  154.1680 H       1  UNL1        0.1192
     18 C         136.7526  143.5849  155.4504 C.3     1  UNL1        0.2525
     19 O         138.1994  143.9424  155.2795 O.3     1  UNL1       -0.4717
     20 N         142.6130  138.5994  157.8010 N.ar    1  UNL1       -0.2307
     21 C         142.3148  137.1576  157.5138 C.ar    1  UNL1        0.1131
     22 C         143.2745  136.6864  156.4618 C.ar    1  UNL1        0.1005
     23 N         144.1659  137.8369  156.0987 N.ar    1  UNL1       -0.1332
     24 N         143.7571  139.0192  156.9264 N.ar    1  UNL1       -0.0641
     25 C         143.3327  135.3069  155.8756 C.3     1  UNL1        0.0437
     26 C         143.8264  133.8916  155.9313 C.3     1  UNL1        0.0064
     27 C         142.9396  134.3328  154.8048 C.3     1  UNL1        0.0064
     28 C         140.3733  140.3543  162.2490 C.2     1  UNL1        0.2406
     29 O         138.9035  140.2774  162.5386 O.2     1  UNL1       -0.2733
     30 N         141.3523  140.5101  163.3748 N.am    1  UNL1       -0.3043
     31 H         142.3169  140.5606  163.1848 H       1  UNL1        0.1494
     32 C         140.8616  140.5890  164.7900 C.3     1  UNL1        0.0756
     33 C         140.1203  139.4325  165.3924 C.3     1  UNL1        0.0199
     34 C         139.6296  139.5114  166.8076 C.3     1  UNL1        0.0017
     35 C         139.8801  140.7469  167.6205 C.3     1  UNL1        0.0004
     36 C         140.6214  141.9035  167.0181 C.3     1  UNL1        0.0060
     37 C         141.1121  141.8246  165.6029 C.3     1  UNL1        0.0403
     38 C         141.8533  142.9811  165.0005 C.ar    1  UNL1       -0.0209
     39 C         141.0990  144.0738  164.3026 C.ar    1  UNL1       -0.0042
     40 C         141.8402  145.2304  163.7002 C.ar    1  UNL1       -0.0003
     41 C         143.3357  145.2943  163.7956 C.ar    1  UNL1       -0.0000
     42 C         144.0902  144.2017  164.4935 C.ar    1  UNL1       -0.0003
     43 C         143.3489  143.0451  165.0959 C.ar    1  UNL1       -0.0042
@<TRIPOS>BOND
     1    18    19    1
     2    19     8    1
     3     8     9   ar
     4     9    10   ar
     5    10     1    1
     6     1     2    2
     7     1     3   am
     8     3     4    1
     9     4     5    1
    10     5    20    1
    11    20    21   ar
    12    21    22   ar
    13    22    25    1
    14    25    26    1
    15    26    27    1
    16    22    23   ar
    17    23    24   ar
    18     5     6    1
    19     6     7    1
    20     7    28    1
    21    28    29    2
    22    28    30   am
    23    32    30    1
    24    32    33    1
    25    33    34    1
    26    34    35    1
    27    35    36    1
    28    36    37    1
    29    37    38    1
    30    38    39   ar
    31    39    40   ar
    32    40    41   ar
    33    41    42   ar
    34    42    43   ar
    35    10    11   ar
    36    11    12   ar
    37    12    13   ar
    38    13    14    1
    39    14    15    1
    40    13     8   ar
    41     7     3    1
    42    37    32    1
    43    43    38   ar
    44    24    20   ar
    45    27    25    1
    46    30    31    1
    47    15    16    1
    48    15    17    1
@<TRIPOS>MOLECULE
*****
 43 48 0 0 0
SMALL
GASTEIGER

@<TRIPOS>ATOM
      1 C         139.9720  143.4146  159.0784 C.2     1  UNL1        0.2495
      2 O         139.3659  143.8557  160.3778 O.2     1  UNL1       -0.2699
      3 N         141.3873  142.9193  159.0409 N.am    1  UNL1       -0.2674
      4 C         142.1243  142.4475  157.8226 C.3     1  UNL1        0.1185
      5 C         143.5067  142.0453  158.2438 C.3     1  UNL1        0.1288
      6 C         143.6240  142.2685  159.7224 C.3     1  UNL1        0.0554
      7 C         142.3142  142.8087  160.2150 C.3     1  UNL1        0.1540
      8 C         138.5837  144.6247  155.5629 C.ar    1  UNL1        0.1361
      9 C         139.3931  144.5704  156.8247 C.ar    1  UNL1        0.0411
     10 C         139.1627  143.4690  157.8167 C.ar    1  UNL1        0.0566
     11 C         138.1229  142.4221  157.5468 C.ar    1  UNL1        0.0044
     12 C         137.3136  142.4764  156.2851 C.ar    1  UNL1        0.0002
     13 C         137.5440  143.5778  155.2931 C.ar    1  UNL1        0.0274
     14 C         136.7347  143.6322  154.0314 C.3     1  UNL1        0.0952
     15 N         137.4045  143.9314  152.7230 N.3     1  UNL1       -0.3174
     16 H         137.7649  144.8856  152.7359 H       1  UNL1        0.1192
     17 H         136.7291  143.8333  151.9650 H       1  UNL1        0.1192
     18 C         139.5630  146.9596  154.9804 C.3     1  UNL1        0.2525
     19 O         138.8142  145.7260  154.5710 O.3     1  UNL1       -0.4717
     20 N         144.5827  141.5133  157.3442 N.ar    1  UNL1       -0.2307
     21 C         145.7961  142.2640  156.8815 C.ar    1  UNL1        0.1131
     22 C         146.5975  141.3519  156.0008 C.ar    1  UNL1        0.1005
     23 N         145.8795  140.0374  155.9192 N.ar    1  UNL1       -0.1332
     24 N         144.6342  140.1372  156.7495 N.ar    1  UNL1       -0.0641
     25 C         147.8901  141.6941  155.3210 C.3     1  UNL1        0.0437
     26 C         149.3900  141.6976  155.3084 C.3     1  UNL1        0.0064
     27 C         148.6290  142.2833  154.1561 C.3     1  UNL1        0.0064
     28 C         141.9885  143.1740  161.6329 C.2     1  UNL1        0.2406
     29 O         142.6395  144.3666  162.2686 O.2     1  UNL1       -0.2733
     30 N         141.0118  142.3470  162.4152 N.am    1  UNL1       -0.3043
     31 H         140.5844  141.5643  161.9980 H       1  UNL1        0.1494
     32 C         140.6861  142.7123  163.8330 C.3     1  UNL1        0.0756
     33 C         139.5170  143.6047  164.1280 C.3     1  UNL1        0.0199
     34 C         139.1914  143.9701  165.5459 C.3     1  UNL1        0.0017
     35 C         140.0347  143.4431  166.6688 C.3     1  UNL1        0.0004
     36 C         141.2037  142.5507  166.3739 C.3     1  UNL1        0.0060
     37 C         141.5294  142.1853  164.9561 C.3     1  UNL1        0.0403
     38 C         142.6984  141.2929  164.6611 C.ar    1  UNL1       -0.0209
     39 C         144.0511  141.8887  164.4059 C.ar    1  UNL1       -0.0042
     40 C         145.2202  140.9963  164.1109 C.ar    1  UNL1       -0.0003
     41 C         145.0366  139.5082  164.0712 C.ar    1  UNL1       -0.0000
     42 C         143.6838  138.9123  164.3265 C.ar    1  UNL1       -0.0003
     43 C         142.5148  139.8047  164.6214 C.ar    1  UNL1       -0.0042
@<TRIPOS>BOND
     1    18    19    1
     2    19     8    1
     3     8     9   ar
     4     9    10   ar
     5    10     1    1
     6     1     2    2
     7     1     3   am
     8     3     4    1
     9     4     5    1
    10     5    20    1
    11    20    21   ar
    12    21    22   ar
    13    22    25    1
    14    25    26    1
    15    26    27    1
    16    22    23   ar
    17    23    24   ar
    18     5     6    1
    19     6     7    1
    20     7    28    1
    21    28    29    2
    22    28    30   am
    23    32    30    1
    24    32    33    1
    25    33    34    1
    26    34    35    1
    27    35    36    1
    28    36    37    1
    29    37    38    1
    30    38    39   ar
    31    39    40   ar
    32    40    41   ar
    33    41    42   ar
    34    42    43   ar
    35    10    11   ar
    36    11    12   ar
    37    12    13   ar
    38    13    14    1
    39    14    15    1
    40    13     8   ar
    41     7     3    1
    42    37    32    1
    43    43    38   ar
    44    24    20   ar
    45    27    25    1
    46    30    31    1
    47    15    16    1
    48    15    17    1
@<TRIPOS>MOLECULE
*****
 43 48 0 0 0
SMALL
GASTEIGER

@<TRIPOS>ATOM
      1 C         142.9999  140.8362  160.0316 C.2     1  UNL1        0.2495
      2 O         143.4974  140.3730  161.3688 O.2     1  UNL1       -0.2699
      3 N         141.5265  140.9706  159.7851 N.am    1  UNL1       -0.2674
      4 C         140.8838  141.4195  158.5062 C.3     1  UNL1        0.1185
      5 C         139.3971  141.4059  158.7048 C.3     1  UNL1        0.1288
      6 C         139.1208  140.9485  160.1064 C.3     1  UNL1        0.0554
      7 C         140.4369  140.6795  160.7740 C.3     1  UNL1        0.1540
      8 C         145.2390  140.4908  156.7732 C.ar    1  UNL1        0.1361
      9 C         144.2630  140.1618  157.8637 C.ar    1  UNL1        0.0411
     10 C         143.9759  141.1652  158.9411 C.ar    1  UNL1        0.0566
     11 C         144.6649  142.4976  158.9280 C.ar    1  UNL1        0.0044
     12 C         145.6408  142.8266  157.8375 C.ar    1  UNL1        0.0002
     13 C         145.9279  141.8232  156.7601 C.ar    1  UNL1        0.0274
     14 C         146.9039  142.1521  155.6696 C.3     1  UNL1        0.0952
     15 N         148.1498  141.3330  155.5060 N.3     1  UNL1       -0.3174
     16 H         148.7518  141.4637  156.3189 H       1  UNL1        0.1192
     17 H         148.6445  141.6309  154.6652 H       1  UNL1        0.1192
     18 C         144.4310  138.5953  155.1907 C.3     1  UNL1        0.2525
     19 O         145.5260  139.4874  155.6958 O.3     1  UNL1       -0.4717
     20 N         138.3674  141.7834  157.6815 N.ar    1  UNL1       -0.2307
     21 C         137.2021  140.9425  157.2514 C.ar    1  UNL1        0.1131
     22 C         136.4368  141.7076  156.2126 C.ar    1  UNL1        0.1005
     23 N         137.1290  143.0213  156.0008 N.ar    1  UNL1       -0.1332
     24 N         138.3222  143.0683  156.9086 N.ar    1  UNL1       -0.0641
     25 C         135.1969  141.2408  155.5092 C.3     1  UNL1        0.0437
     26 C         133.8066  140.6802  155.5618 C.3     1  UNL1        0.0064
     27 C         134.4397  140.9928  154.2384 C.3     1  UNL1        0.0064
     28 C         140.6295  140.2029  162.1832 C.2     1  UNL1        0.2406
     29 O         140.0217  138.9048  162.6257 O.2     1  UNL1       -0.2733
     30 N         141.4298  141.0244  163.1501 N.am    1  UNL1       -0.3043
     31 H         141.8287  141.8763  162.8597 H       1  UNL1        0.1494
     32 C         141.6223  140.5478  164.5592 C.3     1  UNL1        0.0756
     33 C         142.6556  139.5040  164.8633 C.3     1  UNL1        0.0199
     34 C         142.8482  139.0274  166.2725 C.3     1  UNL1        0.0017
     35 C         142.0074  139.5948  167.3776 C.3     1  UNL1        0.0004
     36 C         140.9741  140.6387  167.0735 C.3     1  UNL1        0.0060
     37 C         140.7815  141.1152  165.6644 C.3     1  UNL1        0.0403
     38 C         139.7482  142.1591  165.3602 C.ar    1  UNL1       -0.0209
     39 C         138.4594  141.7685  164.6995 C.ar    1  UNL1       -0.0042
     40 C         137.4260  142.8125  164.3954 C.ar    1  UNL1       -0.0003
     41 C         137.6815  144.2469  164.7519 C.ar    1  UNL1       -0.0000
     42 C         138.9703  144.6375  165.4126 C.ar    1  UNL1       -0.0003
     43 C         140.0036  143.5936  165.7167 C.ar    1  UNL1       -0.0042
@<TRIPOS>BOND
     1    18    19    1
     2    19     8    1
     3     8     9   ar
     4     9    10   ar
     5    10     1    1
     6     1     2    2
     7     1     3   am
     8     3     4    1
     9     4     5    1
    10     5    20    1
    11    20    21   ar
    12    21    22   ar
    13    22    25    1
    14    25    26    1
    15    26    27    1
    16    22    23   ar
    17    23    24   ar
    18     5     6    1
    19     6     7    1
    20     7    28    1
    21    28    29    2
    22    28    30   am
    23    32    30    1
    24    32    33    1
    25    33    34    1
    26    34    35    1
    27    35    36    1
    28    36    37    1
    29    37    38    1
    30    38    39   ar
    31    39    40   ar
    32    40    41   ar
    33    41    42   ar
    34    42    43   ar
    35    10    11   ar
    36    11    12   ar
    37    12    13   ar
    38    13    14    1
    39    14    15    1
    40    13     8   ar
    41     7     3    1
    42    37    32    1
    43    43    38   ar
    44    24    20   ar
    45    27    25    1
    46    30    31    1
    47    15    16    1
    48    15    17    1
@<TRIPOS>MOLECULE
*****
 43 48 0 0 0
SMALL
GASTEIGER

@<TRIPOS>ATOM
      1 C         139.4758  142.7273  158.7931 C.2     1  UNL1        0.2495
      2 O         139.1485  143.5309  160.0168 O.2     1  UNL1       -0.2699
      3 N         140.5168  141.6495  158.8600 N.am    1  UNL1       -0.2674
      4 C         140.9482  140.7687  157.7251 C.3     1  UNL1        0.1185
      5 C         142.0072  139.8380  158.2372 C.3     1  UNL1        0.1288
      6 C         142.2304  140.1435  159.6887 C.3     1  UNL1        0.0554
      7 C         141.3092  141.2631  160.0736 C.3     1  UNL1        0.1540
      8 C         138.5884  144.3010  155.2595 C.ar    1  UNL1        0.1361
      9 C         139.3022  144.0267  156.5500 C.ar    1  UNL1        0.0411
     10 C         138.7621  143.0017  157.5027 C.ar    1  UNL1        0.0566
     11 C         137.5081  142.2509  157.1649 C.ar    1  UNL1        0.0044
     12 C         136.7944  142.5253  155.8744 C.ar    1  UNL1        0.0002
     13 C         137.3345  143.5503  154.9218 C.ar    1  UNL1        0.0274
     14 C         136.6208  143.8246  153.6313 C.3     1  UNL1        0.0952
     15 N         137.3615  143.7324  152.3302 N.3     1  UNL1       -0.3174
     16 H         138.0721  144.4632  152.2910 H       1  UNL1        0.1192
     17 H         136.7071  143.8526  151.5571 H       1  UNL1        0.1192
     18 C         140.2058  146.2700  154.7525 C.3     1  UNL1        0.2525
     19 O         139.1286  145.3260  154.3069 O.3     1  UNL1       -0.4717
     20 N         142.7183  138.7864  157.4381 N.ar    1  UNL1       -0.2307
     21 C         142.4109  137.3182  157.4417 C.ar    1  UNL1        0.1131
     22 C         143.3642  136.6428  156.5009 C.ar    1  UNL1        0.1005
     23 N         144.2608  137.6935  155.9160 N.ar    1  UNL1       -0.1332
     24 N         143.8616  139.0184  156.4952 N.ar    1  UNL1       -0.0641
     25 C         143.4125  135.1744  156.1983 C.3     1  UNL1        0.0437
     26 C         143.1524  134.0319  155.2619 C.3     1  UNL1        0.0064
     27 C         143.7561  133.7737  156.6106 C.3     1  UNL1        0.0064
     28 C         141.1998  141.8868  161.4334 C.2     1  UNL1        0.2406
     29 O         142.3566  142.6541  162.0020 O.2     1  UNL1       -0.2733
     30 N         139.9336  141.7432  162.2248 N.am    1  UNL1       -0.3043
     31 H         139.1744  141.2397  161.8517 H       1  UNL1        0.1494
     32 C         139.8242  142.3669  163.5845 C.3     1  UNL1        0.0756
     33 C         139.4705  143.8185  163.7176 C.3     1  UNL1        0.0199
     34 C         139.3610  144.4421  165.0774 C.3     1  UNL1        0.0017
     35 C         139.6053  143.6142  166.3041 C.3     1  UNL1        0.0004
     36 C         139.9590  142.1626  166.1710 C.3     1  UNL1        0.0060
     37 C         140.0684  141.5390  164.8113 C.3     1  UNL1        0.0403
     38 C         140.4221  140.0874  164.6782 C.ar    1  UNL1       -0.0209
     39 C         139.3440  139.0455  164.7239 C.ar    1  UNL1       -0.0042
     40 C         139.6977  137.5938  164.5908 C.ar    1  UNL1       -0.0003
     41 C         141.1295  137.1841  164.4120 C.ar    1  UNL1       -0.0000
     42 C         142.2077  138.2260  164.3663 C.ar    1  UNL1       -0.0003
     43 C         141.8540  139.6775  164.4994 C.ar    1  UNL1       -0.0042
@<TRIPOS>BOND
     1    18    19    1
     2    19     8    1
     3     8     9   ar
     4     9    10   ar
     5    10     1    1
     6     1     2    2
     7     1     3   am
     8     3     4    1
     9     4     5    1
    10     5    20    1
    11    20    21   ar
    12    21    22   ar
    13    22    25    1
    14    25    26    1
    15    26    27    1
    16    22    23   ar
    17    23    24   ar
    18     5     6    1
    19     6     7    1
    20     7    28    1
    21    28    29    2
    22    28    30   am
    23    32    30    1
    24    32    33    1
    25    33    34    1
    26    34    35    1
    27    35    36    1
    28    36    37    1
    29    37    38    1
    30    38    39   ar
    31    39    40   ar
    32    40    41   ar
    33    41    42   ar
    34    42    43   ar
    35    10    11   ar
    36    11    12   ar
    37    12    13   ar
    38    13    14    1
    39    14    15    1
    40    13     8   ar
    41     7     3    1
    42    37    32    1
    43    43    38   ar
    44    24    20   ar
    45    27    25    1
    46    30    31    1
    47    15    16    1
    48    15    17    1
@<TRIPOS>MOLECULE
*****
 43 48 0 0 0
SMALL
GASTEIGER

@<TRIPOS>ATOM
      1 C         141.5416  143.1764  160.2881 C.2     1  UNL1        0.2495
      2 O         141.4976  143.8042  161.6498 O.2     1  UNL1       -0.2699
      3 N         142.0628  141.7797  160.1227 N.am    1  UNL1       -0.2674
      4 C         142.1668  141.0246  158.8308 C.3     1  UNL1        0.1185
      5 C         142.7398  139.6710  159.1298 C.3     1  UNL1        0.1288
      6 C         142.9900  139.5895  160.6066 C.3     1  UNL1        0.0554
      7 C         142.5716  140.8927  161.2202 C.3     1  UNL1        0.1540
      8 C         139.3940  144.2351  157.1231 C.ar    1  UNL1        0.1361
      9 C         139.8713  143.4661  158.3193 C.ar    1  UNL1        0.0411
     10 C         141.0643  143.9454  159.0919 C.ar    1  UNL1        0.0566
     11 C         141.7801  145.1937  158.6683 C.ar    1  UNL1        0.0044
     12 C         141.3028  145.9627  157.4722 C.ar    1  UNL1        0.0002
     13 C         140.1098  145.4834  156.6996 C.ar    1  UNL1        0.0274
     14 C         139.6325  146.2524  155.5034 C.3     1  UNL1        0.0952
     15 N         138.1647  146.4807  155.2953 N.3     1  UNL1       -0.3174
     16 H         137.7033  145.5881  155.1196 H       1  UNL1        0.1192
     17 H         138.0266  147.0980  154.4952 H       1  UNL1        0.1192
     18 C         137.7737  142.3210  156.4443 C.3     1  UNL1        0.2525
     19 O         138.2010  143.7558  156.3505 O.3     1  UNL1       -0.4717
     20 N         143.0145  138.5889  158.1280 N.ar    1  UNL1       -0.2307
     21 C         142.5882  137.1551  158.2396 C.ar    1  UNL1        0.1131
     22 C         143.0739  136.4307  157.0192 C.ar    1  UNL1        0.1005
     23 N         143.8004  137.4168  156.1533 N.ar    1  UNL1       -0.1332
     24 N         143.7637  138.7507  156.8386 N.ar    1  UNL1       -0.0641
     25 C         142.8690  134.9757  156.7177 C.3     1  UNL1        0.0437
     26 C         142.2995  133.8978  155.8438 C.3     1  UNL1        0.0064
     27 C         143.0838  133.5334  157.0693 C.3     1  UNL1        0.0064
     28 C         142.6485  141.2468  162.6758 C.2     1  UNL1        0.2406
     29 O         143.7695  142.1064  163.1804 O.2     1  UNL1       -0.2733
     30 N         141.6045  140.7414  163.6269 N.am    1  UNL1       -0.3043
     31 H         140.8687  140.1772  163.2957 H       1  UNL1        0.1494
     32 C         141.6813  141.0954  165.0824 C.3     1  UNL1        0.0756
     33 C         142.6960  140.4294  165.9637 C.3     1  UNL1        0.0199
     34 C         142.7729  140.7835  167.4193 C.3     1  UNL1        0.0017
     35 C         141.8351  141.8037  167.9935 C.3     1  UNL1        0.0004
     36 C         140.8204  142.4698  167.1122 C.3     1  UNL1        0.0060
     37 C         140.7435  142.1157  165.6567 C.3     1  UNL1        0.0403
     38 C         139.7289  142.7817  164.7753 C.ar    1  UNL1       -0.0209
     39 C         138.6141  141.9777  164.1747 C.ar    1  UNL1       -0.0042
     40 C         137.5993  142.6438  163.2933 C.ar    1  UNL1       -0.0003
     41 C         137.6995  144.1138  163.0126 C.ar    1  UNL1       -0.0000
     42 C         138.8143  144.9179  163.6132 C.ar    1  UNL1       -0.0003
     43 C         139.8289  144.2519  164.4945 C.ar    1  UNL1       -0.0042
@<TRIPOS>BOND
     1    18    19    1
     2    19     8    1
     3     8     9   ar
     4     9    10   ar
     5    10     1    1
     6     1     2    2
     7     1     3   am
     8     3     4    1
     9     4     5    1
    10     5    20    1
    11    20    21   ar
    12    21    22   ar
    13    22    25    1
    14    25    26    1
    15    26    27    1
    16    22    23   ar
    17    23    24   ar
    18     5     6    1
    19     6     7    1
    20     7    28    1
    21    28    29    2
    22    28    30   am
    23    32    30    1
    24    32    33    1
    25    33    34    1
    26    34    35    1
    27    35    36    1
    28    36    37    1
    29    37    38    1
    30    38    39   ar
    31    39    40   ar
    32    40    41   ar
    33    41    42   ar
    34    42    43   ar
    35    10    11   ar
    36    11    12   ar
    37    12    13   ar
    38    13    14    1
    39    14    15    1
    40    13     8   ar
    41     7     3    1
    42    37    32    1
    43    43    38   ar
    44    24    20   ar
    45    27    25    1
    46    30    31    1
    47    15    16    1
    48    15    17    1
@<TRIPOS>MOLECULE
*****
 43 48 0 0 0
SMALL
GASTEIGER

@<TRIPOS>ATOM
      1 C         141.8938  139.0962  159.7576 C.2     1  UNL1        0.2495
      2 O         142.1510  138.4580  161.0905 O.2     1  UNL1       -0.2699
      3 N         141.8878  140.5908  159.6304 N.am    1  UNL1       -0.2674
      4 C         141.6469  141.3674  158.3699 C.3     1  UNL1        0.1185
      5 C         141.7319  142.8278  158.7018 C.3     1  UNL1        0.1288
      6 C         142.0253  142.9537  160.1674 C.3     1  UNL1        0.0554
      7 C         142.1217  141.5712  160.7413 C.3     1  UNL1        0.1540
      8 C         142.4903  136.5243  156.7945 C.ar    1  UNL1        0.1361
      9 C         142.7415  137.3807  158.0002 C.ar    1  UNL1        0.0411
     10 C         141.6427  138.2398  158.5519 C.ar    1  UNL1        0.0566
     11 C         140.2927  138.2426  157.8980 C.ar    1  UNL1        0.0044
     12 C         140.0415  137.3863  156.6924 C.ar    1  UNL1        0.0002
     13 C         141.1404  136.5271  156.1406 C.ar    1  UNL1        0.0274
     14 C         140.8892  135.6708  154.9350 C.3     1  UNL1        0.0952
     15 N         141.9293  135.5666  153.8592 N.3     1  UNL1       -0.3174
     16 H         142.0403  136.4730  153.4047 H       1  UNL1        0.1192
     17 H         141.6372  134.8740  153.1698 H       1  UNL1        0.1192
     18 C         143.8567  134.3150  156.8389 C.3     1  UNL1        0.2525
     19 O         143.5892  135.6652  156.2427 O.3     1  UNL1       -0.4717
     20 N         141.5545  143.9629  157.7374 N.ar    1  UNL1       -0.2307
     21 C         140.3907  144.9082  157.6927 C.ar    1  UNL1        0.1131
     22 C         140.6269  145.8815  156.5760 C.ar    1  UNL1        0.1005
     23 N         141.9365  145.5377  155.9306 N.ar    1  UNL1       -0.1332
     24 N         142.5099  144.3519  156.6483 N.ar    1  UNL1       -0.0641
     25 C         139.7136  147.0019  156.1751 C.3     1  UNL1        0.0437
     26 C         138.7560  148.0943  156.5490 C.3     1  UNL1        0.0064
     27 C         139.0893  147.8500  155.1070 C.3     1  UNL1        0.0064
     28 C         142.4026  141.2291  162.1745 C.2     1  UNL1        0.2406
     29 O         143.7289  141.5775  162.7826 O.2     1  UNL1       -0.2733
     30 N         141.3575  140.5387  162.9997 N.am    1  UNL1       -0.3043
     31 H         140.4870  140.3100  162.6006 H       1  UNL1        0.1494
     32 C         141.6384  140.1967  164.4328 C.3     1  UNL1        0.0756
     33 C         142.6201  139.1128  164.7666 C.3     1  UNL1        0.0199
     34 C         142.9011  138.7708  166.1998 C.3     1  UNL1        0.0017
     35 C         142.2003  139.5126  167.2992 C.3     1  UNL1        0.0004
     36 C         141.2186  140.5964  166.9654 C.3     1  UNL1        0.0060
     37 C         140.9377  140.9385  165.5322 C.3     1  UNL1        0.0403
     38 C         139.9559  142.0223  165.1984 C.ar    1  UNL1       -0.0209
     39 C         138.5726  141.6663  164.7407 C.ar    1  UNL1       -0.0042
     40 C         137.5908  142.7502  164.4068 C.ar    1  UNL1       -0.0003
     41 C         137.9924  144.1900  164.5307 C.ar    1  UNL1       -0.0000
     42 C         139.3758  144.5462  164.9884 C.ar    1  UNL1       -0.0003
     43 C         140.3575  143.4623  165.3222 C.ar    1  UNL1       -0.0042
@<TRIPOS>BOND
     1    18    19    1
     2    19     8    1
     3     8     9   ar
     4     9    10   ar
     5    10     1    1
     6     1     2    2
     7     1     3   am
     8     3     4    1
     9     4     5    1
    10     5    20    1
    11    20    21   ar
    12    21    22   ar
    13    22    25    1
    14    25    26    1
    15    26    27    1
    16    22    23   ar
    17    23    24   ar
    18     5     6    1
    19     6     7    1
    20     7    28    1
    21    28    29    2
    22    28    30   am
    23    32    30    1
    24    32    33    1
    25    33    34    1
    26    34    35    1
    27    35    36    1
    28    36    37    1
    29    37    38    1
    30    38    39   ar
    31    39    40   ar
    32    40    41   ar
    33    41    42   ar
    34    42    43   ar
    35    10    11   ar
    36    11    12   ar
    37    12    13   ar
    38    13    14    1
    39    14    15    1
    40    13     8   ar
    41     7     3    1
    42    37    32    1
    43    43    38   ar
    44    24    20   ar
    45    27    25    1
    46    30    31    1
    47    15    16    1
    48    15    17    1
