@<TRIPOS>MOLECULE
*****
 36 41 0 0 0
SMALL
GASTEIGER

@<TRIPOS>ATOM
      1 C         139.2854  144.3852  162.8783 C.ar    1  UNL1        0.0899
      2 C         138.5101  144.3423  164.1616 C.ar    1  UNL1        0.1063
      3 N         138.0035  143.0324  164.6884 N.ar    1  UNL1       -0.2291
      4 C         138.2723  141.7654  163.9318 C.ar    1  UNL1        0.1299
      5 C         139.0476  141.8082  162.6484 C.ar    1  UNL1        0.0503
      6 C         139.5541  143.1182  162.1217 C.ar    1  UNL1        0.0895
      7 N         140.2839  142.8508  160.8387 N.2     1  UNL1       -0.2490
      8 C         140.2284  141.3756  160.5726 C.2     1  UNL1        0.0634
      9 C         140.7749  140.5358  159.4564 C.3     1  UNL1        0.0721
     10 C         140.5573  139.0517  159.4586 C.2     1  UNL1       -0.0132
     11 C         139.7932  138.4074  160.5771 C.2     1  UNL1       -0.0037
     12 C         139.2467  139.2472  161.6933 C.2     1  UNL1        0.0010
     13 C         139.4643  140.7313  161.6911 C.2     1  UNL1        0.0180
     14 C         141.1038  138.2119  158.3423 C.ar    1  UNL1        0.0349
     15 C         140.1995  137.7527  157.2372 C.ar    1  UNL1        0.1030
     16 N         140.7459  136.9129  156.1209 N.ar    1  UNL1       -0.2125
     17 C         142.1968  136.5322  156.1098 C.ar    1  UNL1        0.2137
     18 N         142.7433  135.6924  154.9935 N.pl3   1  UNL1       -0.3274
     19 N         143.1012  136.9913  157.2149 N.ar    1  UNL1       -0.2125
     20 C         142.5547  137.8312  158.3312 C.ar    1  UNL1        0.1030
     21 H         142.1497  135.3910  154.2682 H       1  UNL1        0.1452
     22 H         143.6955  135.4425  154.9862 H       1  UNL1        0.1452
     23 N         141.0625  146.2803  162.8928 N.am    1  UNL1       -0.3252
     24 C         139.7919  145.6951  162.3515 C.2     1  UNL1        0.2457
     25 O         139.0278  146.4199  161.2833 O.2     1  UNL1       -0.2703
     26 H         141.3950  147.1400  162.5470 H       1  UNL1        0.1453
     27 H         141.5640  145.8046  163.5938 H       1  UNL1        0.1453
     28 N         137.7657  140.4554  164.4586 N.pl3   1  UNL1       -0.3197
     29 H         136.8612  140.1465  164.2224 H       1  UNL1        0.1481
     30 C         138.6372  139.6162  165.3454 C.3     1  UNL1        0.0702
     31 C         140.1262  139.7958  165.3205 C.3     1  UNL1        0.0179
     32 C         141.3334  140.6638  165.5188 C.3     1  UNL1        0.0017
     33 C         141.4980  139.2392  165.0791 C.3     1  UNL1        0.0017
     34 C         138.0198  138.5975  166.2568 C.3     1  UNL1        0.0179
     35 C         137.7045  137.1676  166.5830 C.3     1  UNL1        0.0017
     36 C         137.2657  138.2626  167.5096 C.3     1  UNL1        0.0017
@<TRIPOS>BOND
     1    23    24   am
     2    24    25    2
     3    24     1    1
     4     1     2   ar
     5     2     3   ar
     6     3     4   ar
     7     4    28    1
     8    28    30    1
     9    30    31    1
    10    31    32    1
    11    32    33    1
    12    30    34    1
    13    34    35    1
    14    35    36    1
    15     4     5   ar
    16     5     6   ar
    17     6     7    1
    18     7     8    2
    19     8     9    1
    20     9    10    1
    21    10    14    1
    22    14    15   ar
    23    15    16   ar
    24    16    17   ar
    25    17    18    1
    26    17    19   ar
    27    19    20   ar
    28    10    11    2
    29    11    12    1
    30    12    13    2
    31     6     1   ar
    32    13     8    1
    33    33    31    1
    34    36    34    1
    35    13     5    1
    36    20    14   ar
    37    23    26    1
    38    23    27    1
    39    28    29    1
    40    18    21    1
    41    18    22    1
@<TRIPOS>MOLECULE
*****
 36 41 0 0 0
SMALL
GASTEIGER

@<TRIPOS>ATOM
      1 C         139.3452  144.3351  162.9168 C.ar    1  UNL1        0.0899
      2 C         138.5736  144.2801  164.2019 C.ar    1  UNL1        0.1063
      3 N         138.0605  142.9665  164.7129 N.ar    1  UNL1       -0.2291
      4 C         138.3190  141.7079  163.9389 C.ar    1  UNL1        0.1299
      5 C         139.0906  141.7629  162.6537 C.ar    1  UNL1        0.0503
      6 C         139.6037  143.0766  162.1427 C.ar    1  UNL1        0.0895
      7 N         140.3279  142.8216  160.8541 N.2     1  UNL1       -0.2490
      8 C         140.2624  141.3504  160.5687 C.2     1  UNL1        0.0634
      9 C         140.8003  140.5221  159.4398 C.3     1  UNL1        0.0721
     10 C         140.5735  139.0395  159.4232 C.2     1  UNL1       -0.0132
     11 C         139.8088  138.3852  160.5354 C.2     1  UNL1       -0.0037
     12 C         139.2709  139.2135  161.6643 C.2     1  UNL1        0.0010
     13 C         139.4977  140.6961  161.6810 C.2     1  UNL1        0.0180
     14 C         141.1114  138.2111  158.2942 C.ar    1  UNL1        0.0349
     15 C         142.5789  137.9102  158.2177 C.ar    1  UNL1        0.1030
     16 N         143.1168  137.0818  157.0888 N.ar    1  UNL1       -0.2125
     17 C         142.1872  136.5543  156.0364 C.ar    1  UNL1        0.2137
     18 N         142.7251  135.7259  154.9075 N.pl3   1  UNL1       -0.3274
     19 N         140.7197  136.8552  156.1129 N.ar    1  UNL1       -0.2125
     20 C         140.1818  137.6836  157.2418 C.ar    1  UNL1        0.1030
     21 H         143.6883  135.5285  154.8573 H       1  UNL1        0.1452
     22 H         142.1149  135.3797  154.2167 H       1  UNL1        0.1452
     23 N         141.1153  146.2359  162.9758 N.am    1  UNL1       -0.3252
     24 C         139.8583  145.6487  162.4057 C.2     1  UNL1        0.2457
     25 O         139.1143  146.3752  161.3246 O.2     1  UNL1       -0.2703
     26 H         141.4520  147.0981  162.6404 H       1  UNL1        0.1453
     27 H         141.6036  145.7591  163.6854 H       1  UNL1        0.1453
     28 N         137.8059  140.3943  164.4500 N.pl3   1  UNL1       -0.3197
     29 H         136.9109  140.0794  164.1870 H       1  UNL1        0.1481
     30 C         138.6564  139.5604  165.3617 C.3     1  UNL1        0.0702
     31 C         138.0158  138.5632  166.2810 C.3     1  UNL1        0.0179
     32 C         137.2477  138.2562  167.5324 C.3     1  UNL1        0.0017
     33 C         137.6742  137.1430  166.6220 C.3     1  UNL1        0.0017
     34 C         140.1474  139.7237  165.3543 C.3     1  UNL1        0.0179
     35 C         141.3992  140.2555  165.9870 C.3     1  UNL1        0.0017
     36 C         141.4783  139.4749  164.7085 C.3     1  UNL1        0.0017
@<TRIPOS>BOND
     1    23    24   am
     2    24    25    2
     3    24     1    1
     4     1     2   ar
     5     2     3   ar
     6     3     4   ar
     7     4    28    1
     8    28    30    1
     9    30    31    1
    10    31    32    1
    11    32    33    1
    12    30    34    1
    13    34    35    1
    14    35    36    1
    15     4     5   ar
    16     5     6   ar
    17     6     7    1
    18     7     8    2
    19     8     9    1
    20     9    10    1
    21    10    14    1
    22    14    15   ar
    23    15    16   ar
    24    16    17   ar
    25    17    18    1
    26    17    19   ar
    27    19    20   ar
    28    10    11    2
    29    11    12    1
    30    12    13    2
    31     6     1   ar
    32    13     8    1
    33    33    31    1
    34    36    34    1
    35    13     5    1
    36    20    14   ar
    37    23    26    1
    38    23    27    1
    39    28    29    1
    40    18    21    1
    41    18    22    1
@<TRIPOS>MOLECULE
*****
 36 41 0 0 0
SMALL
GASTEIGER

@<TRIPOS>ATOM
      1 C         138.4844  138.8910  166.9414 C.ar    1  UNL1        0.0899
      2 C         138.8662  139.8991  167.9844 C.ar    1  UNL1        0.1063
      3 N         139.8786  140.9595  167.6673 N.ar    1  UNL1       -0.2291
      4 C         140.5092  141.0118  166.3073 C.ar    1  UNL1        0.1299
      5 C         140.1273  140.0037  165.2643 C.ar    1  UNL1        0.0503
      6 C         139.1149  138.9433  165.5814 C.ar    1  UNL1        0.0895
      7 N         138.9387  138.0907  164.3598 N.2     1  UNL1       -0.2490
      8 C         139.8421  138.6243  163.2879 C.2     1  UNL1        0.0634
      9 C         140.0908  138.1863  161.8750 C.3     1  UNL1        0.0721
     10 C         141.0740  138.9306  161.0211 C.2     1  UNL1       -0.0132
     11 C         141.8087  140.1129  161.5801 C.2     1  UNL1       -0.0037
     12 C         141.5600  140.5508  162.9930 C.2     1  UNL1        0.0010
     13 C         140.5768  139.8065  163.8469 C.2     1  UNL1        0.0180
     14 C         141.3227  138.4926  159.6081 C.ar    1  UNL1        0.0349
     15 C         140.1878  138.4390  158.6288 C.ar    1  UNL1        0.1030
     16 N         140.4364  138.0011  157.2159 N.ar    1  UNL1       -0.2125
     17 C         141.8200  137.6166  156.7822 C.ar    1  UNL1        0.2137
     18 N         142.0686  137.1787  155.3693 N.pl3   1  UNL1       -0.3274
     19 N         142.9549  137.6702  157.7616 N.ar    1  UNL1       -0.2125
     20 C         142.7062  138.1082  159.1746 C.ar    1  UNL1        0.1030
     21 H         141.3237  137.1436  154.7266 H       1  UNL1        0.1452
     22 H         142.9767  136.9264  155.0847 H       1  UNL1        0.1452
     23 N         137.3861  136.5976  166.4086 N.am    1  UNL1       -0.3252
     24 C         137.4720  137.8305  167.2584 C.2     1  UNL1        0.2457
     25 O         136.5454  138.0031  168.4254 O.2     1  UNL1       -0.2703
     26 H         136.7216  135.9016  166.6167 H       1  UNL1        0.1453
     27 H         137.9942  136.4843  165.6427 H       1  UNL1        0.1453
     28 N         141.5216  142.0723  165.9903 N.pl3   1  UNL1       -0.3197
     29 H         142.4397  141.9958  166.3373 H       1  UNL1        0.1481
     30 C         141.1351  143.2493  165.1445 C.3     1  UNL1        0.0702
     31 C         139.7047  143.6980  165.0927 C.3     1  UNL1        0.0179
     32 C         138.6489  144.7126  165.4183 C.3     1  UNL1        0.0017
     33 C         138.2830  143.4607  164.6774 C.3     1  UNL1        0.0017
     34 C         142.1787  143.9776  164.3507 C.3     1  UNL1        0.0179
     35 C         142.6526  145.2228  163.6615 C.3     1  UNL1        0.0017
     36 C         143.5127  143.9939  163.6648 C.3     1  UNL1        0.0017
@<TRIPOS>BOND
     1    23    24   am
     2    24    25    2
     3    24     1    1
     4     1     2   ar
     5     2     3   ar
     6     3     4   ar
     7     4    28    1
     8    28    30    1
     9    30    31    1
    10    31    32    1
    11    32    33    1
    12    30    34    1
    13    34    35    1
    14    35    36    1
    15     4     5   ar
    16     5     6   ar
    17     6     7    1
    18     7     8    2
    19     8     9    1
    20     9    10    1
    21    10    14    1
    22    14    15   ar
    23    15    16   ar
    24    16    17   ar
    25    17    18    1
    26    17    19   ar
    27    19    20   ar
    28    10    11    2
    29    11    12    1
    30    12    13    2
    31     6     1   ar
    32    13     8    1
    33    33    31    1
    34    36    34    1
    35    13     5    1
    36    20    14   ar
    37    23    26    1
    38    23    27    1
    39    28    29    1
    40    18    21    1
    41    18    22    1
@<TRIPOS>MOLECULE
*****
 36 41 0 0 0
SMALL
GASTEIGER

@<TRIPOS>ATOM
      1 C         138.4806  138.8850  166.9531 C.ar    1  UNL1        0.0899
      2 C         138.8618  139.8933  167.9961 C.ar    1  UNL1        0.1063
      3 N         139.8733  140.9545  167.6790 N.ar    1  UNL1       -0.2291
      4 C         140.5038  141.0073  166.3190 C.ar    1  UNL1        0.1299
      5 C         140.1226  139.9990  165.2760 C.ar    1  UNL1        0.0503
      6 C         139.1110  138.9378  165.5930 C.ar    1  UNL1        0.0895
      7 N         138.9353  138.0852  164.3715 N.2     1  UNL1       -0.2490
      8 C         139.8383  138.6195  163.2994 C.2     1  UNL1        0.0634
      9 C         140.0871  138.1817  161.8865 C.3     1  UNL1        0.0721
     10 C         141.0697  138.9268  161.0326 C.2     1  UNL1       -0.0132
     11 C         141.8036  140.1096  161.5916 C.2     1  UNL1       -0.0037
     12 C         141.5547  140.5473  163.0045 C.2     1  UNL1        0.0010
     13 C         140.5721  139.8023  163.8585 C.2     1  UNL1        0.0180
     14 C         141.3186  138.4891  159.6196 C.ar    1  UNL1        0.0349
     15 C         142.6999  138.0927  159.1895 C.ar    1  UNL1        0.1030
     16 N         142.9488  137.6550  157.7766 N.ar    1  UNL1       -0.2125
     17 C         141.8164  137.6136  156.7936 C.ar    1  UNL1        0.2137
     18 N         142.0653  137.1759  155.3807 N.pl3   1  UNL1       -0.3274
     19 N         140.4352  138.0100  157.2237 N.ar    1  UNL1       -0.2125
     20 C         140.1863  138.4477  158.6367 C.ar    1  UNL1        0.1030
     21 H         142.9719  136.9158  155.0984 H       1  UNL1        0.1452
     22 H         141.3221  137.1488  154.7356 H       1  UNL1        0.1452
     23 N         137.3841  136.5907  166.4204 N.am    1  UNL1       -0.3252
     24 C         137.4690  137.8238  167.2702 C.2     1  UNL1        0.2457
     25 O         136.5423  137.9957  168.4372 O.2     1  UNL1       -0.2703
     26 H         136.7201  135.8942  166.6285 H       1  UNL1        0.1453
     27 H         137.9922  136.4779  165.6545 H       1  UNL1        0.1453
     28 N         141.5154  142.0686  166.0019 N.pl3   1  UNL1       -0.3197
     29 H         142.4322  141.9955  166.3533 H       1  UNL1        0.1481
     30 C         141.1301  143.2413  165.1496 C.3     1  UNL1        0.0702
     31 C         142.1735  143.9589  164.3456 C.3     1  UNL1        0.0179
     32 C         142.6704  145.2096  163.6832 C.3     1  UNL1        0.0017
     33 C         143.4838  143.9511  163.6154 C.3     1  UNL1        0.0017
     34 C         139.7017  143.6962  165.1012 C.3     1  UNL1        0.0179
     35 C         138.6546  144.7246  165.4115 C.3     1  UNL1        0.0017
     36 C         138.2744  143.4561  164.7070 C.3     1  UNL1        0.0017
@<TRIPOS>BOND
     1    23    24   am
     2    24    25    2
     3    24     1    1
     4     1     2   ar
     5     2     3   ar
     6     3     4   ar
     7     4    28    1
     8    28    30    1
     9    30    31    1
    10    31    32    1
    11    32    33    1
    12    30    34    1
    13    34    35    1
    14    35    36    1
    15     4     5   ar
    16     5     6   ar
    17     6     7    1
    18     7     8    2
    19     8     9    1
    20     9    10    1
    21    10    14    1
    22    14    15   ar
    23    15    16   ar
    24    16    17   ar
    25    17    18    1
    26    17    19   ar
    27    19    20   ar
    28    10    11    2
    29    11    12    1
    30    12    13    2
    31     6     1   ar
    32    13     8    1
    33    33    31    1
    34    36    34    1
    35    13     5    1
    36    20    14   ar
    37    23    26    1
    38    23    27    1
    39    28    29    1
    40    18    21    1
    41    18    22    1
@<TRIPOS>MOLECULE
*****
 36 41 0 0 0
SMALL
GASTEIGER

@<TRIPOS>ATOM
      1 C         142.7488  139.5497  159.5136 C.ar    1  UNL1        0.0899
      2 C         142.7622  140.5819  158.4254 C.ar    1  UNL1        0.1063
      3 N         142.7682  142.0405  158.7753 N.ar    1  UNL1       -0.2291
      4 C         142.7606  142.4668  160.2135 C.ar    1  UNL1        0.1299
      5 C         142.7471  141.4345  161.3017 C.ar    1  UNL1        0.0503
      6 C         142.7412  139.9760  160.9517 C.ar    1  UNL1        0.0895
      7 N         142.7278  139.1925  162.2308 N.2     1  UNL1       -0.2490
      8 C         142.7255  140.1669  163.3712 C.2     1  UNL1        0.0634
      9 C         142.7141  139.9714  164.8583 C.3     1  UNL1        0.0721
     10 C         142.7145  141.1615  165.7712 C.2     1  UNL1       -0.0132
     11 C         142.7265  142.5472  165.1970 C.2     1  UNL1       -0.0037
     12 C         142.7379  142.7427  163.7099 C.2     1  UNL1        0.0010
     13 C         142.7374  141.5525  162.7970 C.2     1  UNL1        0.0180
     14 C         142.7031  140.9661  167.2585 C.ar    1  UNL1        0.0349
     15 C         142.6757  139.5806  167.8326 C.ar    1  UNL1        0.1030
     16 N         142.6642  139.3851  169.3197 N.ar    1  UNL1       -0.2125
     17 C         142.6802  140.5751  170.2328 C.ar    1  UNL1        0.2137
     18 N         142.6687  140.3796  171.7199 N.pl3   1  UNL1       -0.3274
     19 N         142.7076  141.9606  169.6587 N.ar    1  UNL1       -0.2125
     20 C         142.7191  142.1561  168.1715 C.ar    1  UNL1        0.1030
     21 H         142.6507  139.4702  172.0967 H       1  UNL1        0.1452
     22 H         142.6792  141.1606  172.3192 H       1  UNL1        0.1452
     23 N         143.0393  137.0657  160.2174 N.am    1  UNL1       -0.3252
     24 C         142.7428  138.0911  159.1636 C.2     1  UNL1        0.2457
     25 O         142.4405  137.6578  157.7596 O.2     1  UNL1       -0.2703
     26 H         143.0354  136.1084  159.9877 H       1  UNL1        0.1453
     27 H         143.2377  137.3501  161.1389 H       1  UNL1        0.1453
     28 N         142.7665  143.9255  160.5634 N.pl3   1  UNL1       -0.3197
     29 H         143.5486  144.3209  161.0120 H       1  UNL1        0.1481
     30 C         141.5809  144.7816  160.2297 C.3     1  UNL1        0.0702
     31 C         141.4198  145.3323  158.8438 C.3     1  UNL1        0.0179
     32 C         142.0229  145.9020  157.5941 C.3     1  UNL1        0.0017
     33 C         140.5377  145.7163  157.6930 C.3     1  UNL1        0.0017
     34 C         140.5564  145.0870  161.2819 C.3     1  UNL1        0.0179
     35 C         139.6381  146.0626  161.9566 C.3     1  UNL1        0.0017
     36 C         139.7000  144.6404  162.4296 C.3     1  UNL1        0.0017
@<TRIPOS>BOND
     1    23    24   am
     2    24    25    2
     3    24     1    1
     4     1     2   ar
     5     2     3   ar
     6     3     4   ar
     7     4    28    1
     8    28    30    1
     9    30    31    1
    10    31    32    1
    11    32    33    1
    12    30    34    1
    13    34    35    1
    14    35    36    1
    15     4     5   ar
    16     5     6   ar
    17     6     7    1
    18     7     8    2
    19     8     9    1
    20     9    10    1
    21    10    14    1
    22    14    15   ar
    23    15    16   ar
    24    16    17   ar
    25    17    18    1
    26    17    19   ar
    27    19    20   ar
    28    10    11    2
    29    11    12    1
    30    12    13    2
    31     6     1   ar
    32    13     8    1
    33    33    31    1
    34    36    34    1
    35    13     5    1
    36    20    14   ar
    37    23    26    1
    38    23    27    1
    39    28    29    1
    40    18    21    1
    41    18    22    1
@<TRIPOS>MOLECULE
*****
 36 41 0 0 0
SMALL
GASTEIGER

@<TRIPOS>ATOM
      1 C         142.2942  143.6855  163.9965 C.ar    1  UNL1        0.0899
      2 C         141.7808  143.0865  165.2723 C.ar    1  UNL1        0.1063
      3 N         140.4906  142.3214  165.2757 N.ar    1  UNL1       -0.2291
      4 C         139.7138  142.1554  164.0033 C.ar    1  UNL1        0.1299
      5 C         140.2271  142.7544  162.7275 C.ar    1  UNL1        0.0503
      6 C         141.5173  143.5195  162.7241 C.ar    1  UNL1        0.0895
      7 N         141.7713  143.9936  161.3239 N.2     1  UNL1       -0.2490
      8 C         140.6381  143.5216  160.4619 C.2     1  UNL1        0.0634
      9 C         140.3519  143.6903  158.9992 C.3     1  UNL1        0.0721
     10 C         139.1114  143.0930  158.4039 C.2     1  UNL1       -0.0132
     11 C         138.1570  142.3271  159.2714 C.2     1  UNL1       -0.0037
     12 C         138.4432  142.1585  160.7342 C.2     1  UNL1        0.0010
     13 C         139.6837  142.7557  161.3294 C.2     1  UNL1        0.0180
     14 C         138.8252  143.2617  156.9411 C.ar    1  UNL1        0.0349
     15 C         139.9123  143.7130  156.0114 C.ar    1  UNL1        0.1030
     16 N         139.6262  143.8816  154.5487 N.ar    1  UNL1       -0.2125
     17 C         138.2528  143.5989  154.0156 C.ar    1  UNL1        0.2137
     18 N         137.9667  143.7676  152.5529 N.pl3   1  UNL1       -0.3274
     19 N         137.1657  143.1476  154.9453 N.ar    1  UNL1       -0.2125
     20 C         137.4519  142.9789  156.4081 C.ar    1  UNL1        0.1030
     21 H         138.6802  144.0638  151.9426 H       1  UNL1        0.1452
     22 H         137.0653  143.5820  152.2030 H       1  UNL1        0.1452
     23 N         143.9191  145.3515  162.8415 N.am    1  UNL1       -0.3252
     24 C         143.5844  144.4506  163.9931 C.2     1  UNL1        0.2457
     25 O         144.5400  144.3147  165.1414 O.2     1  UNL1       -0.2703
     26 H         144.7659  145.8536  162.8393 H       1  UNL1        0.1453
     27 H         143.2919  145.4406  162.0879 H       1  UNL1        0.1453
     28 N         138.4235  141.3903  164.0067 N.pl3   1  UNL1       -0.3197
     29 H         137.5736  141.8576  163.8379 H       1  UNL1        0.1481
     30 C         138.4282  139.9131  164.2674 C.3     1  UNL1        0.0702
     31 C         138.3655  139.3999  165.6755 C.3     1  UNL1        0.0179
     32 C         137.7559  138.4902  166.7006 C.3     1  UNL1        0.0017
     33 C         138.8664  139.4206  167.0892 C.3     1  UNL1        0.0017
     34 C         138.4957  138.9492  163.1202 C.3     1  UNL1        0.0179
     35 C         139.2256  137.8789  162.3639 C.3     1  UNL1        0.0017
     36 C         137.8829  138.3499  161.8891 C.3     1  UNL1        0.0017
@<TRIPOS>BOND
     1    23    24   am
     2    24    25    2
     3    24     1    1
     4     1     2   ar
     5     2     3   ar
     6     3     4   ar
     7     4    28    1
     8    28    30    1
     9    30    31    1
    10    31    32    1
    11    32    33    1
    12    30    34    1
    13    34    35    1
    14    35    36    1
    15     4     5   ar
    16     5     6   ar
    17     6     7    1
    18     7     8    2
    19     8     9    1
    20     9    10    1
    21    10    14    1
    22    14    15   ar
    23    15    16   ar
    24    16    17   ar
    25    17    18    1
    26    17    19   ar
    27    19    20   ar
    28    10    11    2
    29    11    12    1
    30    12    13    2
    31     6     1   ar
    32    13     8    1
    33    33    31    1
    34    36    34    1
    35    13     5    1
    36    20    14   ar
    37    23    26    1
    38    23    27    1
    39    28    29    1
    40    18    21    1
    41    18    22    1
@<TRIPOS>MOLECULE
*****
 36 41 0 0 0
SMALL
GASTEIGER

@<TRIPOS>ATOM
      1 C         142.3726  140.2659  166.5624 C.ar    1  UNL1        0.0899
      2 C         141.9998  141.5597  167.2235 C.ar    1  UNL1        0.1063
      3 N         141.3418  142.6468  166.4265 N.ar    1  UNL1       -0.2291
      4 C         141.0567  142.4402  164.9684 C.ar    1  UNL1        0.1299
      5 C         141.4296  141.1464  164.3073 C.ar    1  UNL1        0.0503
      6 C         142.0875  140.0593  165.1043 C.ar    1  UNL1        0.0895
      7 N         142.3391  138.8995  164.1869 N.2     1  UNL1       -0.2490
      8 C         141.8365  139.2698  162.8230 C.2     1  UNL1        0.0634
      9 C         141.8182  138.5219  161.5229 C.3     1  UNL1        0.0721
     10 C         141.2377  139.1627  160.2972 C.2     1  UNL1       -0.0132
     11 C         140.6756  140.5514  160.3716 C.2     1  UNL1       -0.0037
     12 C         140.6940  141.2993  161.6717 C.2     1  UNL1        0.0010
     13 C         141.2745  140.6585  162.8974 C.2     1  UNL1        0.0180
     14 C         141.2194  138.4148  158.9970 C.ar    1  UNL1        0.0349
     15 C         142.4775  137.7862  158.4756 C.ar    1  UNL1        0.1030
     16 N         142.4592  137.0383  157.1755 N.ar    1  UNL1       -0.2125
     17 C         141.1826  136.9191  156.3967 C.ar    1  UNL1        0.2137
     18 N         141.1643  136.1712  155.0966 N.pl3   1  UNL1       -0.3274
     19 N         139.9245  137.5478  156.9181 N.ar    1  UNL1       -0.2125
     20 C         139.9429  138.2957  158.2183 C.ar    1  UNL1        0.1030
     21 H         141.9901  135.7586  154.7544 H       1  UNL1        0.1452
     22 H         140.3265  136.0930  154.5855 H       1  UNL1        0.1452
     23 N         143.8691  138.1449  166.6683 N.am    1  UNL1       -0.3252
     24 C         143.0306  139.1788  167.3594 C.2     1  UNL1        0.2457
     25 O         142.8500  139.1256  168.8476 O.2     1  UNL1       -0.2703
     26 H         144.3010  137.4313  167.1914 H       1  UNL1        0.1453
     27 H         143.9877  138.1797  165.6916 H       1  UNL1        0.1453
     28 N         140.3987  143.5274  164.1714 N.pl3   1  UNL1       -0.3197
     29 H         139.4244  143.6576  164.2269 H       1  UNL1        0.1481
     30 C         141.2252  144.4162  163.2899 C.3     1  UNL1        0.0702
     31 C         140.5693  145.2101  162.1993 C.3     1  UNL1        0.0179
     32 C         139.6583  146.3218  161.7699 C.3     1  UNL1        0.0017
     33 C         140.3441  145.4738  160.7400 C.3     1  UNL1        0.0017
     34 C         142.7075  144.5109  163.4989 C.3     1  UNL1        0.0179
     35 C         143.8778  144.9946  164.3031 C.3     1  UNL1        0.0017
     36 C         144.1049  144.1914  163.0567 C.3     1  UNL1        0.0017
@<TRIPOS>BOND
     1    23    24   am
     2    24    25    2
     3    24     1    1
     4     1     2   ar
     5     2     3   ar
     6     3     4   ar
     7     4    28    1
     8    28    30    1
     9    30    31    1
    10    31    32    1
    11    32    33    1
    12    30    34    1
    13    34    35    1
    14    35    36    1
    15     4     5   ar
    16     5     6   ar
    17     6     7    1
    18     7     8    2
    19     8     9    1
    20     9    10    1
    21    10    14    1
    22    14    15   ar
    23    15    16   ar
    24    16    17   ar
    25    17    18    1
    26    17    19   ar
    27    19    20   ar
    28    10    11    2
    29    11    12    1
    30    12    13    2
    31     6     1   ar
    32    13     8    1
    33    33    31    1
    34    36    34    1
    35    13     5    1
    36    20    14   ar
    37    23    26    1
    38    23    27    1
    39    28    29    1
    40    18    21    1
    41    18    22    1
@<TRIPOS>MOLECULE
*****
 36 41 0 0 0
SMALL
GASTEIGER

@<TRIPOS>ATOM
      1 C         142.3653  140.2351  166.5768 C.ar    1  UNL1        0.0899
      2 C         141.9801  141.5253  167.2379 C.ar    1  UNL1        0.1063
      3 N         141.3182  142.6088  166.4393 N.ar    1  UNL1       -0.2291
      4 C         141.0414  142.4022  164.9796 C.ar    1  UNL1        0.1299
      5 C         141.4266  141.1120  164.3184 C.ar    1  UNL1        0.0503
      6 C         142.0886  140.0285  165.1170 C.ar    1  UNL1        0.0895
      7 N         142.3527  138.8718  164.1993 N.2     1  UNL1       -0.2490
      8 C         141.8539  139.2404  162.8335 C.2     1  UNL1        0.0634
      9 C         141.8470  138.4942  161.5323 C.3     1  UNL1        0.0721
     10 C         141.2677  139.1326  160.3048 C.2     1  UNL1       -0.0132
     11 C         140.6953  140.5172  160.3784 C.2     1  UNL1       -0.0037
     12 C         140.7023  141.2633  161.6796 C.2     1  UNL1        0.0010
     13 C         141.2815  140.6250  162.9071 C.2     1  UNL1        0.0180
     14 C         141.2607  138.3864  159.0035 C.ar    1  UNL1        0.0349
     15 C         139.9898  138.2632  158.2164 C.ar    1  UNL1        0.1030
     16 N         139.9828  137.5171  156.9152 N.ar    1  UNL1       -0.2125
     17 C         141.2468  136.8941  156.4010 C.ar    1  UNL1        0.2137
     18 N         141.2398  136.1480  155.0998 N.pl3   1  UNL1       -0.3274
     19 N         142.5177  137.0173  157.1881 N.ar    1  UNL1       -0.2125
     20 C         142.5247  137.7635  158.4894 C.ar    1  UNL1        0.1030
     21 H         140.4056  136.0671  154.5832 H       1  UNL1        0.1452
     22 H         142.0694  135.7391  154.7624 H       1  UNL1        0.1452
     23 N         143.8713  138.1210  166.6860 N.am    1  UNL1       -0.3252
     24 C         143.0273  139.1516  167.3754 C.2     1  UNL1        0.2457
     25 O         142.8453  139.0988  168.8634 O.2     1  UNL1       -0.2703
     26 H         144.3058  137.4098  167.2102 H       1  UNL1        0.1453
     27 H         143.9908  138.1556  165.7094 H       1  UNL1        0.1453
     28 N         140.3794  143.4858  164.1810 N.pl3   1  UNL1       -0.3197
     29 H         139.4029  143.6033  164.2252 H       1  UNL1        0.1481
     30 C         141.2052  144.3903  163.3150 C.3     1  UNL1        0.0702
     31 C         142.6861  144.4897  163.5321 C.3     1  UNL1        0.0179
     32 C         144.0693  143.9501  163.3189 C.3     1  UNL1        0.0017
     33 C         143.8677  145.2013  164.1213 C.3     1  UNL1        0.0017
     34 C         140.5503  145.1954  162.2321 C.3     1  UNL1        0.0179
     35 C         140.2954  145.4496  160.7759 C.3     1  UNL1        0.0017
     36 C         139.6706  146.3357  161.8125 C.3     1  UNL1        0.0017
@<TRIPOS>BOND
     1    23    24   am
     2    24    25    2
     3    24     1    1
     4     1     2   ar
     5     2     3   ar
     6     3     4   ar
     7     4    28    1
     8    28    30    1
     9    30    31    1
    10    31    32    1
    11    32    33    1
    12    30    34    1
    13    34    35    1
    14    35    36    1
    15     4     5   ar
    16     5     6   ar
    17     6     7    1
    18     7     8    2
    19     8     9    1
    20     9    10    1
    21    10    14    1
    22    14    15   ar
    23    15    16   ar
    24    16    17   ar
    25    17    18    1
    26    17    19   ar
    27    19    20   ar
    28    10    11    2
    29    11    12    1
    30    12    13    2
    31     6     1   ar
    32    13     8    1
    33    33    31    1
    34    36    34    1
    35    13     5    1
    36    20    14   ar
    37    23    26    1
    38    23    27    1
    39    28    29    1
    40    18    21    1
    41    18    22    1
@<TRIPOS>MOLECULE
*****
 36 41 0 0 0
SMALL
GASTEIGER

@<TRIPOS>ATOM
      1 C         142.3604  143.7502  163.9703 C.ar    1  UNL1        0.0899
      2 C         141.8277  143.1440  165.2347 C.ar    1  UNL1        0.1063
      3 N         140.5383  142.3780  165.2139 N.ar    1  UNL1       -0.2291
      4 C         139.7815  142.2181  163.9288 C.ar    1  UNL1        0.1299
      5 C         140.3141  142.8243  162.6643 C.ar    1  UNL1        0.0503
      6 C         141.6036  143.5903  162.6851 C.ar    1  UNL1        0.0895
      7 N         141.8789  144.0720  161.2915 N.2     1  UNL1       -0.2490
      8 C         140.7597  143.6037  160.4095 C.2     1  UNL1        0.0634
      9 C         140.4962  143.7799  158.9434 C.3     1  UNL1        0.0721
     10 C         139.2656  143.1849  158.3257 C.2     1  UNL1       -0.0132
     11 C         138.2985  142.4137  159.1742 C.2     1  UNL1       -0.0037
     12 C         138.5619  142.2375  160.6403 C.2     1  UNL1        0.0010
     13 C         139.7925  142.8325  161.2579 C.2     1  UNL1        0.0180
     14 C         139.0021  143.3610  156.8595 C.ar    1  UNL1        0.0349
     15 C         138.1718  142.3539  156.1205 C.ar    1  UNL1        0.1030
     16 N         137.9083  142.5300  154.6544 N.ar    1  UNL1       -0.2125
     17 C         138.4750  143.7133  153.9273 C.ar    1  UNL1        0.2137
     18 N         138.2115  143.8894  152.4612 N.pl3   1  UNL1       -0.3274
     19 N         139.3053  144.7205  154.6663 N.ar    1  UNL1       -0.2125
     20 C         139.5689  144.5443  156.1325 C.ar    1  UNL1        0.1030
     21 H         137.6666  143.2283  151.9761 H       1  UNL1        0.1452
     22 H         138.5835  144.6660  151.9840 H       1  UNL1        0.1452
     23 N         144.0264  145.3825  162.8259 N.am    1  UNL1       -0.3252
     24 C         143.6498  144.5162  163.9910 C.2     1  UNL1        0.2457
     25 O         144.5628  144.4160  165.1770 O.2     1  UNL1       -0.2703
     26 H         144.8727  145.8853  162.8395 H       1  UNL1        0.1453
     27 H         143.4272  145.4484  162.0475 H       1  UNL1        0.1453
     28 N         138.4919  141.4520  163.9081 N.pl3   1  UNL1       -0.3197
     29 H         137.6416  141.9235  163.7533 H       1  UNL1        0.1481
     30 C         138.4980  139.9675  164.1231 C.3     1  UNL1        0.0702
     31 C         138.5891  139.0399  162.9479 C.3     1  UNL1        0.0179
     32 C         137.9658  138.0060  162.0576 C.3     1  UNL1        0.0017
     33 C         139.3702  138.4671  161.8025 C.3     1  UNL1        0.0017
     34 C         138.4130  139.4106  165.5132 C.3     1  UNL1        0.0179
     35 C         138.8809  139.3978  166.9384 C.3     1  UNL1        0.0017
     36 C         137.7979  138.4589  166.4961 C.3     1  UNL1        0.0017
@<TRIPOS>BOND
     1    23    24   am
     2    24    25    2
     3    24     1    1
     4     1     2   ar
     5     2     3   ar
     6     3     4   ar
     7     4    28    1
     8    28    30    1
     9    30    31    1
    10    31    32    1
    11    32    33    1
    12    30    34    1
    13    34    35    1
    14    35    36    1
    15     4     5   ar
    16     5     6   ar
    17     6     7    1
    18     7     8    2
    19     8     9    1
    20     9    10    1
    21    10    14    1
    22    14    15   ar
    23    15    16   ar
    24    16    17   ar
    25    17    18    1
    26    17    19   ar
    27    19    20   ar
    28    10    11    2
    29    11    12    1
    30    12    13    2
    31     6     1   ar
    32    13     8    1
    33    33    31    1
    34    36    34    1
    35    13     5    1
    36    20    14   ar
    37    23    26    1
    38    23    27    1
    39    28    29    1
    40    18    21    1
    41    18    22    1
