@<TRIPOS>MOLECULE
*****
 32 35 0 0 0
SMALL
GASTEIGER

@<TRIPOS>ATOM
      1 N         140.1300  138.1306  162.3313 N.3     1  UNL1       -0.2723
      2 C         139.7743  137.7429  163.7360 C.3     1  UNL1        0.0738
      3 C         140.8056  137.8290  164.8219 C.3     1  UNL1        0.0369
      4 C         142.1926  138.3028  164.5030 C.3     1  UNL1        0.0745
      5 C         142.5483  138.6906  163.0983 C.3     1  UNL1        0.0369
      6 C         141.5170  138.6044  162.0125 C.3     1  UNL1        0.0738
      7 N         143.2239  138.3890  165.5888 N.pl3   1  UNL1       -0.3059
      8 H         144.0490  137.8555  165.5274 H       1  UNL1        0.1495
      9 C         142.9980  139.2879  166.7682 C.ar    1  UNL1        0.1978
     10 N         142.9492  138.8613  168.2054 N.ar    1  UNL1       -0.2138
     11 C         142.7023  140.0810  169.0428 C.ar    1  UNL1        0.0999
     12 C         142.5586  140.2693  170.5240 C.ar    1  UNL1        0.0207
     13 C         142.3111  141.6380  171.0855 C.ar    1  UNL1        0.0016
     14 C         142.2073  142.8184  170.1658 C.ar    1  UNL1        0.0016
     15 C         142.3511  142.6302  168.6847 C.ar    1  UNL1        0.0188
     16 C         142.5985  141.2615  168.1232 C.ar    1  UNL1        0.0798
     17 N         142.7813  140.7713  166.7174 N.ar    1  UNL1       -0.2998
     18 C         142.7524  141.6162  165.4783 C.3     1  UNL1        0.1087
     19 C         141.4538  141.8650  164.7702 C.3     1  UNL1        0.0246
     20 C         140.2109  142.1489  165.5606 C.3     1  UNL1        0.0019
     21 C         139.7870  143.5662  165.8085 C.3     1  UNL1        0.0001
     22 C         139.3919  141.0154  166.1031 C.3     1  UNL1        0.0001
     23 C         139.0987  138.0445  161.2455 C.3     1  UNL1        0.0768
     24 C         137.8421  138.8584  161.3383 C.3     1  UNL1        0.0437
     25 C         138.0746  143.2614  162.2376 C.ar    1  UNL1        0.1387
     26 C         137.4365  142.3274  163.2227 C.ar    1  UNL1        0.0366
     27 C         137.3590  140.8597  162.9229 C.ar    1  UNL1       -0.0011
     28 C         137.9196  140.3260  161.6380 C.ar    1  UNL1       -0.0206
     29 C         138.5578  141.2600  160.6529 C.ar    1  UNL1       -0.0011
     30 C         138.6353  142.7278  160.9528 C.ar    1  UNL1        0.0366
     31 C         139.4296  145.4774  162.2963 C.3     1  UNL1        0.2525
     32 O         138.1521  144.7291  162.5374 O.3     1  UNL1       -0.4714
@<TRIPOS>BOND
     1    31    32    1
     2    32    25    1
     3    25    26   ar
     4    26    27   ar
     5    27    28   ar
     6    28    24    1
     7    24    23    1
     8    23     1    1
     9     1     2    1
    10     2     3    1
    11     3     4    1
    12     4     7    1
    13     7     9    1
    14     9    10   ar
    15    10    11   ar
    16    11    12   ar
    17    12    13   ar
    18    13    14   ar
    19    14    15   ar
    20    15    16   ar
    21    16    17   ar
    22    17    18    1
    23    18    19    1
    24    19    20    1
    25    20    21    1
    26    20    22    1
    27     4     5    1
    28     5     6    1
    29    28    29   ar
    30    29    30   ar
    31    30    25   ar
    32     6     1    1
    33    17     9   ar
    34    16    11   ar
    35     7     8    1
@<TRIPOS>MOLECULE
*****
 32 35 0 0 0
SMALL
GASTEIGER

@<TRIPOS>ATOM
      1 N         140.2732  138.2601  162.1811 N.3     1  UNL1       -0.2723
      2 C         141.2475  139.3834  161.9842 C.3     1  UNL1        0.0738
      3 C         142.3178  139.6355  163.0046 C.3     1  UNL1        0.0369
      4 C         142.4137  138.7642  164.2218 C.3     1  UNL1        0.0745
      5 C         141.4394  137.6408  164.4186 C.3     1  UNL1        0.0369
      6 C         140.3692  137.3888  163.3983 C.3     1  UNL1        0.0738
      7 N         143.4840  139.0162  165.2421 N.pl3   1  UNL1       -0.3059
      8 H         144.4134  138.7496  165.0567 H       1  UNL1        0.1495
      9 C         143.1381  139.6744  166.5448 C.ar    1  UNL1        0.1978
     10 N         143.0162  138.9895  167.8737 N.ar    1  UNL1       -0.2138
     11 C         142.6563  140.0249  168.8976 C.ar    1  UNL1        0.0999
     12 C         142.4071  139.9324  170.3739 C.ar    1  UNL1        0.0207
     13 C         142.0573  141.1649  171.1540 C.ar    1  UNL1        0.0016
     14 C         141.9568  142.4898  170.4579 C.ar    1  UNL1        0.0016
     15 C         142.2060  142.5822  168.9817 C.ar    1  UNL1        0.0188
     16 C         142.5557  141.3497  168.2015 C.ar    1  UNL1        0.0798
     17 N         142.8535  141.1331  166.7474 N.ar    1  UNL1       -0.2998
     18 C         142.8648  142.1898  165.6829 C.3     1  UNL1        0.1087
     19 C         144.1570  142.8377  165.2828 C.3     1  UNL1        0.0246
     20 C         144.7538  142.5525  163.9364 C.3     1  UNL1        0.0019
     21 C         144.3269  143.3531  162.7420 C.3     1  UNL1        0.0001
     22 C         145.7775  141.4667  163.7846 C.3     1  UNL1        0.0001
     23 C         139.2029  138.0081  161.1608 C.3     1  UNL1        0.0768
     24 C         137.9129  138.7709  161.2229 C.3     1  UNL1        0.0437
     25 C         137.9397  143.1593  162.2184 C.ar    1  UNL1        0.1387
     26 C         137.5470  142.1559  163.2620 C.ar    1  UNL1        0.0366
     27 C         137.5381  140.6931  162.9301 C.ar    1  UNL1       -0.0011
     28 C         137.9219  140.2336  161.5547 C.ar    1  UNL1       -0.0206
     29 C         138.3146  141.2370  160.5112 C.ar    1  UNL1       -0.0011
     30 C         138.3235  142.6999  160.8431 C.ar    1  UNL1        0.0366
     31 C         139.2389  145.3050  162.8955 C.3     1  UNL1        0.2525
     32 O         137.9487  144.6220  162.5502 O.3     1  UNL1       -0.4714
@<TRIPOS>BOND
     1    31    32    1
     2    32    25    1
     3    25    26   ar
     4    26    27   ar
     5    27    28   ar
     6    28    24    1
     7    24    23    1
     8    23     1    1
     9     1     2    1
    10     2     3    1
    11     3     4    1
    12     4     7    1
    13     7     9    1
    14     9    10   ar
    15    10    11   ar
    16    11    12   ar
    17    12    13   ar
    18    13    14   ar
    19    14    15   ar
    20    15    16   ar
    21    16    17   ar
    22    17    18    1
    23    18    19    1
    24    19    20    1
    25    20    21    1
    26    20    22    1
    27     4     5    1
    28     5     6    1
    29    28    29   ar
    30    29    30   ar
    31    30    25   ar
    32     6     1    1
    33    17     9   ar
    34    16    11   ar
    35     7     8    1
@<TRIPOS>MOLECULE
*****
 32 35 0 0 0
SMALL
GASTEIGER

@<TRIPOS>ATOM
      1 N         141.0481  138.1889  162.0568 N.3     1  UNL1       -0.2723
      2 C         141.2940  137.5547  163.3937 C.3     1  UNL1        0.0738
      3 C         140.4324  137.9186  164.5664 C.3     1  UNL1        0.0369
      4 C         139.3248  138.9167  164.4022 C.3     1  UNL1        0.0745
      5 C         139.0789  139.5510  163.0652 C.3     1  UNL1        0.0369
      6 C         139.9405  139.1870  161.8926 C.3     1  UNL1        0.0738
      7 N         138.4631  139.2807  165.5748 N.pl3   1  UNL1       -0.3059
      8 H         137.5015  139.0699  165.5633 H       1  UNL1        0.1495
      9 C         139.0666  139.9657  166.7650 C.ar    1  UNL1        0.1978
     10 N         139.0184  139.4765  168.1821 N.ar    1  UNL1       -0.2138
     11 C         139.7462  140.4687  169.0400 C.ar    1  UNL1        0.0999
     12 C         140.0198  140.5108  170.5142 C.ar    1  UNL1        0.0207
     13 C         140.7914  141.6552  171.1014 C.ar    1  UNL1        0.0016
     14 C         141.2893  142.7576  170.2144 C.ar    1  UNL1        0.0016
     15 C         141.0157  142.7156  168.7402 C.ar    1  UNL1        0.0188
     16 C         140.2442  141.5711  168.1530 C.ar    1  UNL1        0.0798
     17 N         139.8241  141.2602  166.7470 N.ar    1  UNL1       -0.2998
     18 C         140.1112  142.0970  165.5356 C.3     1  UNL1        0.1087
     19 C         141.4075  141.9311  164.7995 C.3     1  UNL1        0.0246
     20 C         142.6541  141.5644  165.5489 C.3     1  UNL1        0.0019
     21 C         142.9819  140.1222  165.7993 C.3     1  UNL1        0.0001
     22 C         143.5729  142.6399  166.0480 C.3     1  UNL1        0.0001
     23 C         141.9097  137.8250  160.8841 C.3     1  UNL1        0.0768
     24 C         143.3112  138.3514  160.7911 C.3     1  UNL1        0.0437
     25 C         144.2625  142.4914  162.2761 C.ar    1  UNL1        0.1387
     26 C         143.2453  142.2993  161.1906 C.ar    1  UNL1        0.0366
     27 C         142.9282  140.9194  160.6956 C.ar    1  UNL1       -0.0011
     28 C         143.6283  139.7314  161.2861 C.ar    1  UNL1       -0.0206
     29 C         144.6456  139.9235  162.3716 C.ar    1  UNL1       -0.0011
     30 C         144.9627  141.3036  162.8666 C.ar    1  UNL1        0.0366
     31 C         143.4717  144.8504  163.0243 C.3     1  UNL1        0.2525
     32 O         144.5796  143.8714  162.7711 O.3     1  UNL1       -0.4714
@<TRIPOS>BOND
     1    31    32    1
     2    32    25    1
     3    25    26   ar
     4    26    27   ar
     5    27    28   ar
     6    28    24    1
     7    24    23    1
     8    23     1    1
     9     1     2    1
    10     2     3    1
    11     3     4    1
    12     4     7    1
    13     7     9    1
    14     9    10   ar
    15    10    11   ar
    16    11    12   ar
    17    12    13   ar
    18    13    14   ar
    19    14    15   ar
    20    15    16   ar
    21    16    17   ar
    22    17    18    1
    23    18    19    1
    24    19    20    1
    25    20    21    1
    26    20    22    1
    27     4     5    1
    28     5     6    1
    29    28    29   ar
    30    29    30   ar
    31    30    25   ar
    32     6     1    1
    33    17     9   ar
    34    16    11   ar
    35     7     8    1
@<TRIPOS>MOLECULE
*****
 32 35 0 0 0
SMALL
GASTEIGER

@<TRIPOS>ATOM
      1 N         141.5743  137.9945  162.1221 N.3     1  UNL1       -0.2723
      2 C         140.2858  138.7037  161.8273 C.3     1  UNL1        0.0738
      3 C         139.3286  139.0133  162.9399 C.3     1  UNL1        0.0369
      4 C         139.6598  138.6138  164.3473 C.3     1  UNL1        0.0745
      5 C         140.9483  137.9045  164.6420 C.3     1  UNL1        0.0369
      6 C         141.9055  137.5949  163.5295 C.3     1  UNL1        0.0738
      7 N         138.7026  138.9234  165.4598 N.pl3   1  UNL1       -0.3059
      8 H         137.7889  138.5574  165.4392 H       1  UNL1        0.1495
      9 C         139.1375  139.7907  166.6038 C.ar    1  UNL1        0.1978
     10 N         139.0862  139.4240  168.0574 N.ar    1  UNL1       -0.2138
     11 C         139.6171  140.5836  168.8471 C.ar    1  UNL1        0.0999
     12 C         139.8040  140.7929  170.3206 C.ar    1  UNL1        0.0207
     13 C         140.3704  142.0856  170.8285 C.ar    1  UNL1        0.0016
     14 C         140.7498  143.1690  169.8629 C.ar    1  UNL1        0.0016
     15 C         140.5629  142.9596  168.3894 C.ar    1  UNL1        0.0188
     16 C         139.9965  141.6669  167.8815 C.ar    1  UNL1        0.0798
     17 N         139.7002  141.1769  166.4951 N.ar    1  UNL1       -0.2998
     18 C         139.9267  141.9393  165.2233 C.3     1  UNL1        0.1087
     19 C         138.7569  142.3774  164.3930 C.3     1  UNL1        0.0246
     20 C         138.4041  143.8326  164.3031 C.3     1  UNL1        0.0019
     21 C         137.6509  144.3495  163.1133 C.3     1  UNL1        0.0001
     22 C         138.8044  144.7708  165.4028 C.3     1  UNL1        0.0001
     23 C         142.5315  137.6848  161.0095 C.3     1  UNL1        0.0768
     24 C         143.7851  138.4933  160.8518 C.3     1  UNL1        0.0437
     25 C         144.2212  142.4135  163.0178 C.ar    1  UNL1        0.1387
     26 C         144.7647  141.1553  163.6274 C.ar    1  UNL1        0.0366
     27 C         144.6194  139.8486  162.9054 C.ar    1  UNL1       -0.0011
     28 C         143.9304  139.8000  161.5738 C.ar    1  UNL1       -0.0206
     29 C         143.3869  141.0582  160.9642 C.ar    1  UNL1       -0.0011
     30 C         143.5324  142.3650  161.6863 C.ar    1  UNL1        0.0366
     31 C         143.7806  144.9704  163.1534 C.3     1  UNL1        0.2525
     32 O         144.3666  143.7202  163.7398 O.3     1  UNL1       -0.4714
@<TRIPOS>BOND
     1    31    32    1
     2    32    25    1
     3    25    26   ar
     4    26    27   ar
     5    27    28   ar
     6    28    24    1
     7    24    23    1
     8    23     1    1
     9     1     2    1
    10     2     3    1
    11     3     4    1
    12     4     7    1
    13     7     9    1
    14     9    10   ar
    15    10    11   ar
    16    11    12   ar
    17    12    13   ar
    18    13    14   ar
    19    14    15   ar
    20    15    16   ar
    21    16    17   ar
    22    17    18    1
    23    18    19    1
    24    19    20    1
    25    20    21    1
    26    20    22    1
    27     4     5    1
    28     5     6    1
    29    28    29   ar
    30    29    30   ar
    31    30    25   ar
    32     6     1    1
    33    17     9   ar
    34    16    11   ar
    35     7     8    1
@<TRIPOS>MOLECULE
*****
 32 35 0 0 0
SMALL
GASTEIGER

@<TRIPOS>ATOM
      1 N         138.4081  141.6375  161.8788 N.3     1  UNL1       -0.2723
      2 C         138.7000  140.1663  161.8916 C.3     1  UNL1        0.0738
      3 C         138.6685  139.4066  163.1846 C.3     1  UNL1        0.0369
      4 C         138.3451  140.1181  164.4649 C.3     1  UNL1        0.0745
      5 C         138.0531  141.5895  164.4521 C.3     1  UNL1        0.0369
      6 C         138.0846  142.3491  163.1591 C.3     1  UNL1        0.0738
      7 N         138.3136  139.3585  165.7579 N.pl3   1  UNL1       -0.3059
      8 H         137.6587  138.6350  165.8879 H       1  UNL1        0.1495
      9 C         139.2799  139.7011  166.8528 C.ar    1  UNL1        0.1978
     10 N         138.9942  139.6627  168.3248 N.ar    1  UNL1       -0.2138
     11 C         140.2393  140.0802  169.0497 C.ar    1  UNL1        0.0999
     12 C         140.5485  140.2287  170.5100 C.ar    1  UNL1        0.0207
     13 C         141.9129  140.6737  170.9462 C.ar    1  UNL1        0.0016
     14 C         142.9681  140.9701  169.9221 C.ar    1  UNL1        0.0016
     15 C         142.6589  140.8216  168.4619 C.ar    1  UNL1        0.0188
     16 C         141.2945  140.3766  168.0257 C.ar    1  UNL1        0.0798
     17 N         140.7015  140.1424  166.6679 N.ar    1  UNL1       -0.2998
     18 C         141.4065  140.3184  165.3557 C.3     1  UNL1        0.1087
     19 C         142.1768  139.1780  164.7591 C.3     1  UNL1        0.0246
     20 C         143.5804  138.9031  165.2110 C.3     1  UNL1        0.0019
     21 C         144.7398  139.4459  164.4292 C.3     1  UNL1        0.0001
     22 C         143.8247  138.0855  166.4446 C.3     1  UNL1        0.0001
     23 C         138.4396  142.3973  160.5858 C.3     1  UNL1        0.0768
     24 C         139.7180  143.0256  160.1161 C.3     1  UNL1        0.0437
     25 C         143.2833  143.1914  162.8567 C.ar    1  UNL1        0.1387
     26 C         142.3336  144.3506  162.7906 C.ar    1  UNL1        0.0366
     27 C         141.1452  144.2954  161.8770 C.ar    1  UNL1       -0.0011
     28 C         140.9064  143.0809  161.0296 C.ar    1  UNL1       -0.0206
     29 C         141.8561  141.9217  161.0958 C.ar    1  UNL1       -0.0011
     30 C         143.0445  141.9769  162.0094 C.ar    1  UNL1        0.0366
     31 C         144.2734  143.3124  165.2557 C.3     1  UNL1        0.2525
     32 O         144.4717  143.2466  163.7703 O.3     1  UNL1       -0.4714
@<TRIPOS>BOND
     1    31    32    1
     2    32    25    1
     3    25    26   ar
     4    26    27   ar
     5    27    28   ar
     6    28    24    1
     7    24    23    1
     8    23     1    1
     9     1     2    1
    10     2     3    1
    11     3     4    1
    12     4     7    1
    13     7     9    1
    14     9    10   ar
    15    10    11   ar
    16    11    12   ar
    17    12    13   ar
    18    13    14   ar
    19    14    15   ar
    20    15    16   ar
    21    16    17   ar
    22    17    18    1
    23    18    19    1
    24    19    20    1
    25    20    21    1
    26    20    22    1
    27     4     5    1
    28     5     6    1
    29    28    29   ar
    30    29    30   ar
    31    30    25   ar
    32     6     1    1
    33    17     9   ar
    34    16    11   ar
    35     7     8    1
@<TRIPOS>MOLECULE
*****
 32 35 0 0 0
SMALL
GASTEIGER

@<TRIPOS>ATOM
      1 N         144.3012  141.3295  161.9250 N.3     1  UNL1       -0.2723
      2 C         143.6211  140.0027  161.7612 C.3     1  UNL1        0.0738
      3 C         143.4384  139.1021  162.9469 C.3     1  UNL1        0.0369
      4 C         143.9358  139.5285  164.2962 C.3     1  UNL1        0.0745
      5 C         144.6160  140.8554  164.4600 C.3     1  UNL1        0.0369
      6 C         144.7987  141.7559  163.2744 C.3     1  UNL1        0.0738
      7 N         143.7531  138.6280  165.4819 N.pl3   1  UNL1       -0.3059
      8 H         144.2352  137.7708  165.5279 H       1  UNL1        0.1495
      9 C         142.8359  139.0335  166.5974 C.ar    1  UNL1        0.1978
     10 N         143.1155  138.8920  168.0643 N.ar    1  UNL1       -0.2138
     11 C         141.9305  139.4227  168.8154 C.ar    1  UNL1        0.0999
     12 C         141.6422  139.5391  170.2828 C.ar    1  UNL1        0.0207
     13 C         140.3420  140.1250  170.7474 C.ar    1  UNL1        0.0016
     14 C         139.3300  140.5945  169.7447 C.ar    1  UNL1        0.0016
     15 C         139.6183  140.4781  168.2773 C.ar    1  UNL1        0.0188
     16 C         140.9185  139.8922  167.8126 C.ar    1  UNL1        0.0798
     17 N         141.4781  139.6517  166.4419 N.ar    1  UNL1       -0.2998
     18 C         140.7991  139.9729  165.1435 C.3     1  UNL1        0.1087
     19 C         139.3522  139.6288  164.9486 C.3     1  UNL1        0.0246
     20 C         138.9486  138.2098  164.6775 C.3     1  UNL1        0.0019
     21 C         139.0722  137.6463  163.2929 C.3     1  UNL1        0.0001
     22 C         138.4214  137.3542  165.7911 C.3     1  UNL1        0.0001
     23 C         144.4839  142.2301  160.7393 C.3     1  UNL1        0.0768
     24 C         143.4045  143.2004  160.3612 C.3     1  UNL1        0.0437
     25 C         140.3534  144.4739  163.4139 C.ar    1  UNL1        0.1387
     26 C         141.7333  145.0611  163.4426 C.ar    1  UNL1        0.0366
     27 C         142.7504  144.6367  162.4250 C.ar    1  UNL1       -0.0011
     28 C         142.3874  143.6249  161.3787 C.ar    1  UNL1       -0.0206
     29 C         141.0075  143.0377  161.3500 C.ar    1  UNL1       -0.0011
     30 C         139.9904  143.4622  162.3676 C.ar    1  UNL1        0.0366
     31 C         138.0676  144.1151  164.5957 C.3     1  UNL1        0.2525
     32 O         139.3364  144.8983  164.4314 O.3     1  UNL1       -0.4714
@<TRIPOS>BOND
     1    31    32    1
     2    32    25    1
     3    25    26   ar
     4    26    27   ar
     5    27    28   ar
     6    28    24    1
     7    24    23    1
     8    23     1    1
     9     1     2    1
    10     2     3    1
    11     3     4    1
    12     4     7    1
    13     7     9    1
    14     9    10   ar
    15    10    11   ar
    16    11    12   ar
    17    12    13   ar
    18    13    14   ar
    19    14    15   ar
    20    15    16   ar
    21    16    17   ar
    22    17    18    1
    23    18    19    1
    24    19    20    1
    25    20    21    1
    26    20    22    1
    27     4     5    1
    28     5     6    1
    29    28    29   ar
    30    29    30   ar
    31    30    25   ar
    32     6     1    1
    33    17     9   ar
    34    16    11   ar
    35     7     8    1
@<TRIPOS>MOLECULE
*****
 32 35 0 0 0
SMALL
GASTEIGER

@<TRIPOS>ATOM
      1 N         138.6693  140.7047  165.1877 N.3     1  UNL1       -0.2723
      2 C         139.6489  141.5309  165.9671 C.3     1  UNL1        0.0738
      3 C         140.1605  142.8216  165.3992 C.3     1  UNL1        0.0369
      4 C         139.6925  143.2860  164.0519 C.3     1  UNL1        0.0745
      5 C         138.7128  142.4596  163.2725 C.3     1  UNL1        0.0369
      6 C         138.2012  141.1690  163.8404 C.3     1  UNL1        0.0738
      7 N         140.2040  144.5766  163.4840 N.pl3   1  UNL1       -0.3059
      8 H         140.3073  145.3639  164.0660 H       1  UNL1        0.1495
      9 C         140.5582  144.6677  162.0293 C.ar    1  UNL1        0.1978
     10 N         139.8027  145.4339  160.9842 N.ar    1  UNL1       -0.2138
     11 C         140.5077  145.2484  159.6732 C.ar    1  UNL1        0.0999
     12 C         140.2189  145.7678  158.2960 C.ar    1  UNL1        0.0207
     13 C         141.1212  145.4063  157.1536 C.ar    1  UNL1        0.0016
     14 C         142.3124  144.5255  157.3885 C.ar    1  UNL1        0.0016
     15 C         142.6013  144.0061  158.7657 C.ar    1  UNL1        0.0188
     16 C         141.6989  144.3676  159.9081 C.ar    1  UNL1        0.0798
     17 N         141.7301  144.0087  161.3642 N.ar    1  UNL1       -0.2998
     18 C         142.7536  143.1429  162.0371 C.3     1  UNL1        0.1087
     19 C         143.7888  143.7607  162.9296 C.3     1  UNL1        0.0246
     20 C         144.3432  142.9824  164.0858 C.3     1  UNL1        0.0019
     21 C         144.4687  143.6286  165.4336 C.3     1  UNL1        0.0001
     22 C         144.7722  141.5579  163.8942 C.3     1  UNL1        0.0001
     23 C         138.1577  139.4140  165.7556 C.3     1  UNL1        0.0768
     24 C         138.8261  138.1198  165.3975 C.3     1  UNL1        0.0437
     25 C         142.5772  138.1373  162.9118 C.ar    1  UNL1        0.1387
     26 C         141.2485  137.8860  162.2627 C.ar    1  UNL1        0.0366
     27 C         139.9981  137.8802  163.0912 C.ar    1  UNL1       -0.0011
     28 C         140.0764  138.1256  164.5690 C.ar    1  UNL1       -0.0206
     29 C         141.4051  138.3770  165.2181 C.ar    1  UNL1       -0.0011
     30 C         142.6555  138.3828  164.3895 C.ar    1  UNL1        0.0366
     31 C         143.9944  139.1504  160.9843 C.3     1  UNL1        0.2525
     32 O         143.8276  138.1432  162.0833 O.3     1  UNL1       -0.4714
@<TRIPOS>BOND
     1    31    32    1
     2    32    25    1
     3    25    26   ar
     4    26    27   ar
     5    27    28   ar
     6    28    24    1
     7    24    23    1
     8    23     1    1
     9     1     2    1
    10     2     3    1
    11     3     4    1
    12     4     7    1
    13     7     9    1
    14     9    10   ar
    15    10    11   ar
    16    11    12   ar
    17    12    13   ar
    18    13    14   ar
    19    14    15   ar
    20    15    16   ar
    21    16    17   ar
    22    17    18    1
    23    18    19    1
    24    19    20    1
    25    20    21    1
    26    20    22    1
    27     4     5    1
    28     5     6    1
    29    28    29   ar
    30    29    30   ar
    31    30    25   ar
    32     6     1    1
    33    17     9   ar
    34    16    11   ar
    35     7     8    1
@<TRIPOS>MOLECULE
*****
 32 35 0 0 0
SMALL
GASTEIGER

@<TRIPOS>ATOM
      1 N         142.8902  140.4667  165.8304 N.3     1  UNL1       -0.2723
      2 C         141.6708  141.3099  166.0582 C.3     1  UNL1        0.0738
      3 C         141.5339  142.6333  165.3655 C.3     1  UNL1        0.0369
      4 C         142.6165  143.1135  164.4450 C.3     1  UNL1        0.0745
      5 C         143.8360  142.2702  164.2172 C.3     1  UNL1        0.0369
      6 C         143.9728  140.9469  164.9099 C.3     1  UNL1        0.0738
      7 N         142.4797  144.4369  163.7522 N.pl3   1  UNL1       -0.3059
      8 H         142.6098  145.2723  164.2566 H       1  UNL1        0.1495
      9 C         142.1446  144.4874  162.2910 C.ar    1  UNL1        0.1978
     10 N         143.0270  144.0295  161.1677 N.ar    1  UNL1       -0.2138
     11 C         142.2960  144.2639  159.8790 C.ar    1  UNL1        0.0999
     12 C         142.6729  144.0063  158.4502 C.ar    1  UNL1        0.0207
     13 C         141.7157  144.3515  157.3482 C.ar    1  UNL1        0.0016
     14 C         140.3815  144.9542  157.6750 C.ar    1  UNL1        0.0016
     15 C         140.0047  145.2118  159.1038 C.ar    1  UNL1        0.0188
     16 C         140.9619  144.8666  160.2058 C.ar    1  UNL1        0.0798
     17 N         140.8683  145.0048  161.6965 N.ar    1  UNL1       -0.2998
     18 C         139.7030  145.5624  162.4588 C.3     1  UNL1        0.1087
     19 C         138.5208  144.6914  162.7646 C.3     1  UNL1        0.0246
     20 C         138.3409  144.1278  164.1430 C.3     1  UNL1        0.0019
     21 C         138.6964  144.9541  165.3434 C.3     1  UNL1        0.0001
     22 C         137.8055  142.7380  164.3210 C.3     1  UNL1        0.0001
     23 C         143.0271  139.1432  166.5232 C.3     1  UNL1        0.0768
     24 C         142.7449  137.8732  165.7767 C.3     1  UNL1        0.0437
     25 C         139.8874  137.8942  162.3005 C.ar    1  UNL1        0.1387
     26 C         141.3640  137.9979  162.0581 C.ar    1  UNL1        0.0366
     27 C         142.3165  137.9909  163.2168 C.ar    1  UNL1       -0.0011
     28 C         141.7924  137.8802  164.6180 C.ar    1  UNL1       -0.0206
     29 C         140.3157  137.7765  164.8603 C.ar    1  UNL1       -0.0011
     30 C         139.3632  137.7835  163.7015 C.ar    1  UNL1        0.0366
     31 C         138.2410  139.1718  160.7489 C.3     1  UNL1        0.2525
     32 O         138.9349  137.9012  161.1418 O.3     1  UNL1       -0.4714
@<TRIPOS>BOND
     1    31    32    1
     2    32    25    1
     3    25    26   ar
     4    26    27   ar
     5    27    28   ar
     6    28    24    1
     7    24    23    1
     8    23     1    1
     9     1     2    1
    10     2     3    1
    11     3     4    1
    12     4     7    1
    13     7     9    1
    14     9    10   ar
    15    10    11   ar
    16    11    12   ar
    17    12    13   ar
    18    13    14   ar
    19    14    15   ar
    20    15    16   ar
    21    16    17   ar
    22    17    18    1
    23    18    19    1
    24    19    20    1
    25    20    21    1
    26    20    22    1
    27     4     5    1
    28     5     6    1
    29    28    29   ar
    30    29    30   ar
    31    30    25   ar
    32     6     1    1
    33    17     9   ar
    34    16    11   ar
    35     7     8    1
@<TRIPOS>MOLECULE
*****
 32 35 0 0 0
SMALL
GASTEIGER

@<TRIPOS>ATOM
      1 N         139.6603  138.7261  164.3193 N.3     1  UNL1       -0.2723
      2 C         139.2168  138.3142  162.9469 C.3     1  UNL1        0.0738
      3 C         140.2299  137.8736  161.9321 C.3     1  UNL1        0.0369
      4 C         141.6863  137.8450  162.2898 C.3     1  UNL1        0.0745
      5 C         142.1297  138.2569  163.6623 C.3     1  UNL1        0.0369
      6 C         141.1167  138.6974  164.6771 C.3     1  UNL1        0.0738
      7 N         142.6993  137.4045  161.2751 N.pl3   1  UNL1       -0.3059
      8 H         143.1866  136.5584  161.4012 H       1  UNL1        0.1495
      9 C         142.9699  138.2530  160.0681 C.ar    1  UNL1        0.1978
     10 N         142.6029  137.9162  158.6533 N.ar    1  UNL1       -0.2138
     11 C         143.0611  139.0424  157.7748 C.ar    1  UNL1        0.0999
     12 C         142.9703  139.2608  156.2936 C.ar    1  UNL1        0.0207
     13 C         143.5298  140.5121  155.6843 C.ar    1  UNL1        0.0016
     14 C         144.1800  141.5450  156.5563 C.ar    1  UNL1        0.0016
     15 C         144.2708  141.3266  158.0375 C.ar    1  UNL1        0.0188
     16 C         143.7114  140.0753  158.6467 C.ar    1  UNL1        0.0798
     17 N         143.6550  139.5874  160.0641 N.ar    1  UNL1       -0.2998
     18 C         144.1898  140.3076  161.2663 C.3     1  UNL1        0.1087
     19 C         143.6847  141.6785  161.6056 C.3     1  UNL1        0.0246
     20 C         142.5266  141.8400  162.5452 C.3     1  UNL1        0.0019
     21 C         142.7609  142.3077  163.9510 C.3     1  UNL1        0.0001
     22 C         141.1342  141.5337  162.0790 C.3     1  UNL1        0.0001
     23 C         138.6472  139.1666  165.3341 C.3     1  UNL1        0.0768
     24 C         138.7147  140.5503  165.9094 C.3     1  UNL1        0.0437
     25 C         138.5609  144.1291  163.1858 C.ar    1  UNL1        0.1387
     26 C         137.7012  142.9331  162.9020 C.ar    1  UNL1        0.0366
     27 C         137.7525  141.7402  163.8098 C.ar    1  UNL1       -0.0011
     28 C         138.6634  141.7432  165.0016 C.ar    1  UNL1       -0.0206
     29 C         139.5231  142.9392  165.2854 C.ar    1  UNL1       -0.0011
     30 C         139.4718  144.1322  164.3775 C.ar    1  UNL1        0.0366
     31 C         139.7755  146.0341  161.9029 C.3     1  UNL1        0.2525
     32 O         138.5096  145.3221  162.2780 O.3     1  UNL1       -0.4714
@<TRIPOS>BOND
     1    31    32    1
     2    32    25    1
     3    25    26   ar
     4    26    27   ar
     5    27    28   ar
     6    28    24    1
     7    24    23    1
     8    23     1    1
     9     1     2    1
    10     2     3    1
    11     3     4    1
    12     4     7    1
    13     7     9    1
    14     9    10   ar
    15    10    11   ar
    16    11    12   ar
    17    12    13   ar
    18    13    14   ar
    19    14    15   ar
    20    15    16   ar
    21    16    17   ar
    22    17    18    1
    23    18    19    1
    24    19    20    1
    25    20    21    1
    26    20    22    1
    27     4     5    1
    28     5     6    1
    29    28    29   ar
    30    29    30   ar
    31    30    25   ar
    32     6     1    1
    33    17     9   ar
    34    16    11   ar
    35     7     8    1
