@<TRIPOS>MOLECULE
*****
 37 40 0 0 0
SMALL
GASTEIGER

@<TRIPOS>ATOM
      1 N         141.0747  140.0722  167.6620 N.ar    1  UNL1       -0.2998
      2 C         139.6406  139.9501  168.0844 C.ar    1  UNL1        0.1978
      3 N         139.4470  140.7862  169.3146 N.ar    1  UNL1       -0.2138
      4 C         140.7614  141.4251  169.6524 C.ar    1  UNL1        0.0999
      5 C         141.1723  142.3517  170.7582 C.ar    1  UNL1        0.0207
      6 C         142.5891  142.8369  170.8425 C.ar    1  UNL1        0.0016
      7 C         143.5950  142.3957  169.8210 C.ar    1  UNL1        0.0016
      8 C         143.1842  141.4691  168.7153 C.ar    1  UNL1        0.0188
      9 C         141.7674  140.9838  168.6310 C.ar    1  UNL1        0.0798
     10 N         138.5854  139.1349  167.3973 N.pl3   1  UNL1       -0.3059
     11 H         137.9176  138.6450  167.9295 H       1  UNL1        0.1495
     12 C         138.5477  139.0662  165.8994 C.3     1  UNL1        0.0745
     13 C         138.8440  137.7726  165.2002 C.3     1  UNL1        0.0369
     14 C         138.8063  137.7039  163.7023 C.3     1  UNL1        0.0738
     15 N         138.4722  138.9288  162.9035 N.3     1  UNL1       -0.2723
     16 C         138.1759  140.2223  163.6026 C.3     1  UNL1        0.0738
     17 C         138.2136  140.2911  165.1006 C.3     1  UNL1        0.0369
     18 C         138.4345  138.8600  161.4055 C.3     1  UNL1        0.0768
     19 C         139.6583  138.4476  160.6426 C.3     1  UNL1        0.0437
     20 C         140.9969  139.0178  161.0071 C.ar    1  UNL1       -0.0206
     21 C         141.2430  140.4924  160.8831 C.ar    1  UNL1       -0.0011
     22 C         142.5816  141.0626  161.2477 C.ar    1  UNL1        0.0366
     23 C         143.6741  140.1584  161.7362 C.ar    1  UNL1        0.1387
     24 C         143.4282  138.6840  161.8602 C.ar    1  UNL1        0.0366
     25 C         142.0895  138.1136  161.4957 C.ar    1  UNL1       -0.0011
     26 O         145.0127  140.7287  162.1007 O.3     1  UNL1       -0.4714
     27 C         145.2544  141.2482  163.4871 C.3     1  UNL1        0.2525
     28 C         141.7054  139.4006  166.4782 C.3     1  UNL1        0.1087
     29 C         142.3677  140.2238  165.4136 C.3     1  UNL1        0.0246
     30 C         141.6570  141.4096  164.8315 C.3     1  UNL1        0.0020
     31 C         142.1877  142.7925  165.0678 C.3     1  UNL1        0.0001
     32 C         142.4171  143.7160  163.9082 C.3     1  UNL1        0.0000
     33 C         141.6853  145.0234  163.8345 C.3     1  UNL1        0.0000
     34 C         140.3943  145.1185  163.0768 C.3     1  UNL1        0.0000
     35 C         139.3759  144.0230  163.1898 C.3     1  UNL1        0.0000
     36 C         138.5962  144.8689  165.5192 C.3     1  UNL1        0.0000
     37 C         138.3424  144.0689  164.2761 C.3     1  UNL1        0.0000
@<TRIPOS>BOND
     1    36    37    1
     2    37    35    1
     3    35    34    1
     4    34    33    1
     5    33    32    1
     6    32    31    1
     7    31    30    1
     8    30    29    1
     9    29    28    1
    10    28     1    1
    11     1     2   ar
    12     2    10    1
    13    10    12    1
    14    12    13    1
    15    13    14    1
    16    14    15    1
    17    15    18    1
    18    18    19    1
    19    19    20    1
    20    20    21   ar
    21    21    22   ar
    22    22    23   ar
    23    23    26    1
    24    26    27    1
    25    23    24   ar
    26    24    25   ar
    27    15    16    1
    28    16    17    1
    29     2     3   ar
    30     3     4   ar
    31     4     5   ar
    32     5     6   ar
    33     6     7   ar
    34     7     8   ar
    35     8     9   ar
    36     9     1   ar
    37    17    12    1
    38     9     4   ar
    39    25    20   ar
    40    10    11    1
@<TRIPOS>MOLECULE
*****
 37 40 0 0 0
SMALL
GASTEIGER

@<TRIPOS>ATOM
      1 N         140.2098  138.6362  165.0572 N.ar    1  UNL1       -0.2998
      2 C         141.4453  137.9817  164.5137 C.ar    1  UNL1        0.1978
      3 N         142.5674  138.2393  165.4752 N.ar    1  UNL1       -0.2138
      4 C         142.0255  139.0529  166.6129 C.ar    1  UNL1        0.0999
      5 C         142.6706  139.6020  167.8508 C.ar    1  UNL1        0.0207
      6 C         141.8586  140.3964  168.8303 C.ar    1  UNL1        0.0016
      7 C         140.4015  140.6418  168.5719 C.ar    1  UNL1        0.0016
      8 C         139.7564  140.0926  167.3341 C.ar    1  UNL1        0.0188
      9 C         140.5684  139.2982  166.3546 C.ar    1  UNL1        0.0798
     10 N         141.5416  137.2060  163.2335 N.pl3   1  UNL1       -0.3059
     11 H         141.2974  136.2524  163.2162 H       1  UNL1        0.1495
     12 C         142.0101  137.8831  161.9797 C.3     1  UNL1        0.0745
     13 C         141.0172  138.2917  160.9321 C.3     1  UNL1        0.0369
     14 C         141.4857  138.9688  159.6783 C.3     1  UNL1        0.0738
     15 N         142.9469  139.2374  159.4720 N.3     1  UNL1       -0.2723
     16 C         143.9398  138.8288  160.5195 C.3     1  UNL1        0.0738
     17 C         143.4713  138.1517  161.7734 C.3     1  UNL1        0.0369
     18 C         143.4154  139.9145  158.2181 C.3     1  UNL1        0.0768
     19 C         143.8648  141.3449  158.2613 C.3     1  UNL1        0.0437
     20 C         143.2321  142.3010  159.2285 C.ar    1  UNL1       -0.0206
     21 C         143.9896  142.7506  160.4427 C.ar    1  UNL1       -0.0011
     22 C         143.3569  143.7067  161.4099 C.ar    1  UNL1        0.0366
     23 C         141.9667  144.2132  161.1630 C.ar    1  UNL1        0.1387
     24 C         141.2093  143.7636  159.9489 C.ar    1  UNL1        0.0366
     25 C         141.8420  142.8074  158.9816 C.ar    1  UNL1       -0.0011
     26 O         141.3340  145.1693  162.1302 O.3     1  UNL1       -0.4714
     27 C         139.9215  144.9508  162.5853 C.3     1  UNL1        0.2525
     28 C         138.8538  138.6298  164.4159 C.3     1  UNL1        0.1087
     29 C         138.4182  139.7901  163.5711 C.3     1  UNL1        0.0246
     30 C         139.1460  141.0986  163.6613 C.3     1  UNL1        0.0020
     31 C         140.3799  141.3287  162.8400 C.3     1  UNL1        0.0001
     32 C         141.7226  141.3933  163.5056 C.3     1  UNL1        0.0000
     33 C         141.9766  142.4030  164.5855 C.3     1  UNL1        0.0000
     34 C         143.2232  142.3162  165.4152 C.3     1  UNL1        0.0000
     35 C         144.5222  142.8353  164.8738 C.3     1  UNL1        0.0000
     36 C         145.2775  140.4750  164.0937 C.3     1  UNL1        0.0000
     37 C         145.3641  141.9686  163.9849 C.3     1  UNL1        0.0000
@<TRIPOS>BOND
     1    36    37    1
     2    37    35    1
     3    35    34    1
     4    34    33    1
     5    33    32    1
     6    32    31    1
     7    31    30    1
     8    30    29    1
     9    29    28    1
    10    28     1    1
    11     1     2   ar
    12     2    10    1
    13    10    12    1
    14    12    13    1
    15    13    14    1
    16    14    15    1
    17    15    18    1
    18    18    19    1
    19    19    20    1
    20    20    21   ar
    21    21    22   ar
    22    22    23   ar
    23    23    26    1
    24    26    27    1
    25    23    24   ar
    26    24    25   ar
    27    15    16    1
    28    16    17    1
    29     2     3   ar
    30     3     4   ar
    31     4     5   ar
    32     5     6   ar
    33     6     7   ar
    34     7     8   ar
    35     8     9   ar
    36     9     1   ar
    37    17    12    1
    38     9     4   ar
    39    25    20   ar
    40    10    11    1
@<TRIPOS>MOLECULE
*****
 37 40 0 0 0
SMALL
GASTEIGER

@<TRIPOS>ATOM
      1 N         141.4036  139.0461  166.3258 N.ar    1  UNL1       -0.2998
      2 C         139.9660  139.1063  165.9021 C.ar    1  UNL1        0.1978
      3 N         139.2325  139.9820  166.8743 N.ar    1  UNL1       -0.2138
      4 C         140.2169  140.4630  167.8989 C.ar    1  UNL1        0.0999
      5 C         140.0647  141.3529  169.0968 C.ar    1  UNL1        0.0207
      6 C         141.2544  141.6644  169.9556 C.ar    1  UNL1        0.0016
      7 C         142.5962  141.0860  169.6166 C.ar    1  UNL1        0.0016
      8 C         142.7484  140.1961  168.4187 C.ar    1  UNL1        0.0188
      9 C         141.5587  139.8846  167.5599 C.ar    1  UNL1        0.0798
     10 N         139.3669  138.4127  164.7147 N.pl3   1  UNL1       -0.3059
     11 H         139.1215  137.4610  164.7726 H       1  UNL1        0.1495
     12 C         139.1419  139.1690  163.4390 C.3     1  UNL1        0.0745
     13 C         138.0910  140.2375  163.3760 C.3     1  UNL1        0.0369
     14 C         137.8659  140.9938  162.1003 C.3     1  UNL1        0.0738
     15 N         138.6917  140.6816  160.8876 N.3     1  UNL1       -0.2723
     16 C         139.7425  139.6131  160.9506 C.3     1  UNL1        0.0738
     17 C         139.9676  138.8567  162.2263 C.3     1  UNL1        0.0369
     18 C         138.4666  141.4379  159.6119 C.3     1  UNL1        0.0768
     19 C         138.9275  142.8603  159.4920 C.3     1  UNL1        0.0437
     20 C         140.1456  143.3192  160.2372 C.ar    1  UNL1       -0.0206
     21 C         141.4996  142.7998  159.8536 C.ar    1  UNL1       -0.0011
     22 C         142.7177  143.2588  160.5989 C.ar    1  UNL1        0.0366
     23 C         142.5820  144.2372  161.7277 C.ar    1  UNL1        0.1387
     24 C         141.2281  144.7566  162.1113 C.ar    1  UNL1        0.0366
     25 C         140.0099  144.2977  161.3661 C.ar    1  UNL1       -0.0011
     26 O         143.8001  144.6962  162.4730 O.3     1  UNL1       -0.4714
     27 C         143.6521  145.4267  163.7747 C.3     1  UNL1        0.2525
     28 C         142.4947  138.2817  165.6365 C.3     1  UNL1        0.1087
     29 C         143.0243  138.7566  164.3160 C.3     1  UNL1        0.0246
     30 C         144.3994  139.3495  164.2287 C.3     1  UNL1        0.0020
     31 C         144.5976  140.6938  163.5936 C.3     1  UNL1        0.0001
     32 C         144.6053  141.9305  164.4424 C.3     1  UNL1        0.0000
     33 C         143.4750  142.1953  165.3923 C.3     1  UNL1        0.0000
     34 C         142.0743  142.3294  164.8727 C.3     1  UNL1        0.0000
     35 C         141.0530  143.0969  165.6587 C.3     1  UNL1        0.0000
     36 C         138.9538  144.5362  165.1376 C.3     1  UNL1        0.0000
     37 C         139.6445  143.2048  165.1543 C.3     1  UNL1        0.0000
@<TRIPOS>BOND
     1    36    37    1
     2    37    35    1
     3    35    34    1
     4    34    33    1
     5    33    32    1
     6    32    31    1
     7    31    30    1
     8    30    29    1
     9    29    28    1
    10    28     1    1
    11     1     2   ar
    12     2    10    1
    13    10    12    1
    14    12    13    1
    15    13    14    1
    16    14    15    1
    17    15    18    1
    18    18    19    1
    19    19    20    1
    20    20    21   ar
    21    21    22   ar
    22    22    23   ar
    23    23    26    1
    24    26    27    1
    25    23    24   ar
    26    24    25   ar
    27    15    16    1
    28    16    17    1
    29     2     3   ar
    30     3     4   ar
    31     4     5   ar
    32     5     6   ar
    33     6     7   ar
    34     7     8   ar
    35     8     9   ar
    36     9     1   ar
    37    17    12    1
    38     9     4   ar
    39    25    20   ar
    40    10    11    1
@<TRIPOS>MOLECULE
*****
 37 40 0 0 0
SMALL
GASTEIGER

@<TRIPOS>ATOM
      1 N         142.5522  141.2491  167.6510 N.ar    1  UNL1       -0.2998
      2 C         142.5850  139.7681  167.8866 C.ar    1  UNL1        0.1978
      3 N         141.6479  139.4577  169.0160 N.ar    1  UNL1       -0.2138
      4 C         141.0360  140.7468  169.4783 C.ar    1  UNL1        0.0999
      5 C         140.0421  141.0555  170.5585 C.ar    1  UNL1        0.0207
      6 C         139.6072  142.4714  170.7950 C.ar    1  UNL1        0.0016
      7 C         140.1661  143.5786  169.9514 C.ar    1  UNL1        0.0016
      8 C         141.1599  143.2699  168.8712 C.ar    1  UNL1        0.0188
      9 C         141.5949  141.8540  168.6347 C.ar    1  UNL1        0.0798
     10 N         143.4100  138.7724  167.1264 N.pl3   1  UNL1       -0.3059
     11 H         144.0646  138.2108  167.6011 H       1  UNL1        0.1495
     12 C         143.2375  138.6323  165.6430 C.3     1  UNL1        0.0745
     13 C         144.3221  139.0934  164.7150 C.3     1  UNL1        0.0369
     14 C         144.1497  138.9533  163.2316 C.3     1  UNL1        0.0738
     15 N         142.8927  138.3521  162.6761 N.3     1  UNL1       -0.2723
     16 C         141.8082  137.8909  163.6040 C.3     1  UNL1        0.0738
     17 C         141.9806  138.0310  165.0875 C.3     1  UNL1        0.0369
     18 C         142.7204  138.2120  161.1925 C.3     1  UNL1        0.0768
     19 C         143.3561  139.2059  160.2664 C.3     1  UNL1        0.0437
     20 C         142.9563  140.6503  160.3276 C.ar    1  UNL1       -0.0206
     21 C         143.9083  141.6694  160.8803 C.ar    1  UNL1       -0.0011
     22 C         143.5085  143.1138  160.9415 C.ar    1  UNL1        0.0366
     23 C         142.1567  143.5393  160.4499 C.ar    1  UNL1        0.1387
     24 C         141.2047  142.5203  159.8972 C.ar    1  UNL1        0.0366
     25 C         141.6045  141.0758  159.8360 C.ar    1  UNL1       -0.0011
     26 O         141.7569  144.9837  160.5110 O.3     1  UNL1       -0.4714
     27 C         140.4105  145.4112  160.0066 C.3     1  UNL1        0.2525
     28 C         143.3387  141.9944  166.6137 C.3     1  UNL1        0.1087
     29 C         142.7185  142.3087  165.2846 C.3     1  UNL1        0.0246
     30 C         141.3683  141.7551  164.9373 C.3     1  UNL1        0.0020
     31 C         140.9994  141.5233  163.5020 C.3     1  UNL1        0.0001
     32 C         139.6625  140.9372  163.1565 C.3     1  UNL1        0.0000
     33 C         138.4722  141.8338  162.9852 C.3     1  UNL1        0.0000
     34 C         137.8487  142.4894  164.1816 C.3     1  UNL1        0.0000
     35 C         137.8677  143.9835  164.3131 C.3     1  UNL1        0.0000
     36 C         140.1918  145.0652  163.8908 C.3     1  UNL1        0.0000
     37 C         139.0927  144.6749  164.8340 C.3     1  UNL1        0.0000
@<TRIPOS>BOND
     1    36    37    1
     2    37    35    1
     3    35    34    1
     4    34    33    1
     5    33    32    1
     6    32    31    1
     7    31    30    1
     8    30    29    1
     9    29    28    1
    10    28     1    1
    11     1     2   ar
    12     2    10    1
    13    10    12    1
    14    12    13    1
    15    13    14    1
    16    14    15    1
    17    15    18    1
    18    18    19    1
    19    19    20    1
    20    20    21   ar
    21    21    22   ar
    22    22    23   ar
    23    23    26    1
    24    26    27    1
    25    23    24   ar
    26    24    25   ar
    27    15    16    1
    28    16    17    1
    29     2     3   ar
    30     3     4   ar
    31     4     5   ar
    32     5     6   ar
    33     6     7   ar
    34     7     8   ar
    35     8     9   ar
    36     9     1   ar
    37    17    12    1
    38     9     4   ar
    39    25    20   ar
    40    10    11    1
@<TRIPOS>MOLECULE
*****
 37 40 0 0 0
SMALL
GASTEIGER

@<TRIPOS>ATOM
      1 N         142.4682  141.2504  167.3972 N.ar    1  UNL1       -0.2998
      2 C         142.6180  139.7750  167.6227 C.ar    1  UNL1        0.1978
      3 N         141.8549  139.4159  168.8631 N.ar    1  UNL1       -0.2138
      4 C         141.2334  140.6693  169.4043 C.ar    1  UNL1        0.0999
      5 C         140.3714  140.9247  170.6049 C.ar    1  UNL1        0.0207
      6 C         139.8884  142.3138  170.8996 C.ar    1  UNL1        0.0016
      7 C         140.2674  143.4476  169.9936 C.ar    1  UNL1        0.0016
      8 C         141.1295  143.1923  168.7929 C.ar    1  UNL1        0.0188
      9 C         141.6125  141.8031  168.4983 C.ar    1  UNL1        0.0798
     10 N         143.3946  138.8255  166.7593 N.pl3   1  UNL1       -0.3059
     11 H         144.1565  138.3287  167.1359 H       1  UNL1        0.1495
     12 C         143.0102  138.6330  165.3223 C.3     1  UNL1        0.0745
     13 C         141.7085  137.9729  164.9760 C.3     1  UNL1        0.0369
     14 C         141.3241  137.7804  163.5389 C.3     1  UNL1        0.0738
     15 N         142.2414  138.2479  162.4481 N.3     1  UNL1       -0.2723
     16 C         143.5431  138.9080  162.7943 C.3     1  UNL1        0.0738
     17 C         143.9275  139.1006  164.2314 C.3     1  UNL1        0.0369
     18 C         141.8570  138.0554  161.0110 C.3     1  UNL1        0.0768
     19 C         140.5396  138.5701  160.5116 C.3     1  UNL1        0.0437
     20 C         140.3225  140.0458  160.3527 C.ar    1  UNL1       -0.0206
     21 C         138.9525  140.5734  160.0449 C.ar    1  UNL1       -0.0011
     22 C         138.7354  142.0491  159.8860 C.ar    1  UNL1        0.0366
     23 C         139.8882  142.9971  160.0350 C.ar    1  UNL1        0.1387
     24 C         141.2582  142.4695  160.3428 C.ar    1  UNL1        0.0366
     25 C         141.4753  140.9938  160.5017 C.ar    1  UNL1       -0.0011
     26 O         139.6711  144.4728  159.8761 O.3     1  UNL1       -0.4714
     27 C         140.0876  145.4139  160.9674 C.3     1  UNL1        0.2525
     28 C         143.0686  142.0353  166.2688 C.3     1  UNL1        0.1087
     29 C         142.2643  142.3060  165.0320 C.3     1  UNL1        0.0246
     30 C         141.3735  143.5111  164.9654 C.3     1  UNL1        0.0020
     31 C         139.8869  143.3401  164.8620 C.3     1  UNL1        0.0001
     32 C         139.2688  142.9213  163.5610 C.3     1  UNL1        0.0000
     33 C         137.8169  142.5486  163.5061 C.3     1  UNL1        0.0000
     34 C         137.4167  141.1097  163.3659 C.3     1  UNL1        0.0000
     35 C         138.3147  140.0273  163.8875 C.3     1  UNL1        0.0000
     36 C         139.1163  140.1335  166.3565 C.3     1  UNL1        0.0000
     37 C         138.1948  139.5754  165.3128 C.3     1  UNL1        0.0000
@<TRIPOS>BOND
     1    36    37    1
     2    37    35    1
     3    35    34    1
     4    34    33    1
     5    33    32    1
     6    32    31    1
     7    31    30    1
     8    30    29    1
     9    29    28    1
    10    28     1    1
    11     1     2   ar
    12     2    10    1
    13    10    12    1
    14    12    13    1
    15    13    14    1
    16    14    15    1
    17    15    18    1
    18    18    19    1
    19    19    20    1
    20    20    21   ar
    21    21    22   ar
    22    22    23   ar
    23    23    26    1
    24    26    27    1
    25    23    24   ar
    26    24    25   ar
    27    15    16    1
    28    16    17    1
    29     2     3   ar
    30     3     4   ar
    31     4     5   ar
    32     5     6   ar
    33     6     7   ar
    34     7     8   ar
    35     8     9   ar
    36     9     1   ar
    37    17    12    1
    38     9     4   ar
    39    25    20   ar
    40    10    11    1
@<TRIPOS>MOLECULE
*****
 37 40 0 0 0
SMALL
GASTEIGER

@<TRIPOS>ATOM
      1 N         142.6902  140.7134  166.7017 N.ar    1  UNL1       -0.2998
      2 C         142.9321  139.2387  166.8315 C.ar    1  UNL1        0.1978
      3 N         142.9041  138.8911  168.2904 N.ar    1  UNL1       -0.2138
      4 C         142.6449  140.1510  169.0622 C.ar    1  UNL1        0.0999
      5 C         142.5122  140.4181  170.5322 C.ar    1  UNL1        0.0207
      6 C         142.2473  141.8115  171.0203 C.ar    1  UNL1        0.0016
      7 C         142.1151  142.9377  170.0384 C.ar    1  UNL1        0.0016
      8 C         142.2478  142.6706  168.5684 C.ar    1  UNL1        0.0188
      9 C         142.5127  141.2772  168.0803 C.ar    1  UNL1        0.0798
     10 N         143.1617  138.2800  165.7009 N.pl3   1  UNL1       -0.3059
     11 H         143.9562  137.6986  165.7022 H       1  UNL1        0.1495
     12 C         142.1809  138.2072  164.5684 C.3     1  UNL1        0.0745
     13 C         142.6343  138.4802  163.1648 C.3     1  UNL1        0.0369
     14 C         141.6535  138.4074  162.0323 C.3     1  UNL1        0.0738
     15 N         140.2193  138.0616  162.3032 N.3     1  UNL1       -0.2723
     16 C         139.7659  137.7886  163.7067 C.3     1  UNL1        0.0738
     17 C         140.7467  137.8614  164.8394 C.3     1  UNL1        0.0369
     18 C         139.2385  137.9888  161.1706 C.3     1  UNL1        0.0768
     19 C         138.1788  139.0407  161.0274 C.3     1  UNL1        0.0437
     20 C         138.5575  140.4385  160.6368 C.ar    1  UNL1       -0.0206
     21 C         138.3952  140.8902  159.2156 C.ar    1  UNL1       -0.0011
     22 C         138.7740  142.2880  158.8250 C.ar    1  UNL1        0.0366
     23 C         139.3149  143.2342  159.8556 C.ar    1  UNL1        0.1387
     24 C         139.4771  142.7826  161.2767 C.ar    1  UNL1        0.0366
     25 C         139.0984  141.3847  161.6674 C.ar    1  UNL1       -0.0011
     26 O         139.6936  144.6321  159.4650 O.3     1  UNL1       -0.4714
     27 C         141.1378  144.9953  159.2848 C.3     1  UNL1        0.2525
     28 C         142.6355  141.4883  165.4185 C.3     1  UNL1        0.1087
     29 C         143.8999  142.0086  164.8019 C.3     1  UNL1        0.0246
     30 C         144.5054  143.2880  165.2985 C.3     1  UNL1        0.0020
     31 C         144.0965  144.5968  164.6903 C.3     1  UNL1        0.0001
     32 C         143.7979  144.6811  163.2227 C.3     1  UNL1        0.0000
     33 C         142.3789  144.6147  162.7411 C.3     1  UNL1        0.0000
     34 C         141.2776  145.2091  163.5680 C.3     1  UNL1        0.0000
     35 C         140.4094  144.3218  164.4100 C.3     1  UNL1        0.0000
     36 C         138.4031  145.0788  165.8768 C.3     1  UNL1        0.0000
     37 C         138.9471  144.6228  164.5554 C.3     1  UNL1        0.0000
@<TRIPOS>BOND
     1    36    37    1
     2    37    35    1
     3    35    34    1
     4    34    33    1
     5    33    32    1
     6    32    31    1
     7    31    30    1
     8    30    29    1
     9    29    28    1
    10    28     1    1
    11     1     2   ar
    12     2    10    1
    13    10    12    1
    14    12    13    1
    15    13    14    1
    16    14    15    1
    17    15    18    1
    18    18    19    1
    19    19    20    1
    20    20    21   ar
    21    21    22   ar
    22    22    23   ar
    23    23    26    1
    24    26    27    1
    25    23    24   ar
    26    24    25   ar
    27    15    16    1
    28    16    17    1
    29     2     3   ar
    30     3     4   ar
    31     4     5   ar
    32     5     6   ar
    33     6     7   ar
    34     7     8   ar
    35     8     9   ar
    36     9     1   ar
    37    17    12    1
    38     9     4   ar
    39    25    20   ar
    40    10    11    1
@<TRIPOS>MOLECULE
*****
 37 40 0 0 0
SMALL
GASTEIGER

@<TRIPOS>ATOM
      1 N         144.3018  141.0037  161.3152 N.ar    1  UNL1       -0.2998
      2 C         144.4564  139.7426  162.1124 C.ar    1  UNL1        0.1978
      3 N         143.8940  138.6112  161.3038 N.ar    1  UNL1       -0.2138
      4 C         143.3918  139.1732  160.0069 C.ar    1  UNL1        0.0999
      5 C         142.7376  138.5294  158.8205 C.ar    1  UNL1        0.0207
      6 C         142.3355  139.3644  157.6410 C.ar    1  UNL1        0.0016
      7 C         142.5875  140.8431  157.6481 C.ar    1  UNL1        0.0016
      8 C         143.2417  141.4868  158.8345 C.ar    1  UNL1        0.0188
      9 C         143.6438  140.6518  160.0139 C.ar    1  UNL1        0.0798
     10 N         145.0663  139.6321  163.4784 N.pl3   1  UNL1       -0.3059
     11 H         146.0110  139.3728  163.5762 H       1  UNL1        0.1495
     12 C         144.2368  139.9168  164.6953 C.3     1  UNL1        0.0745
     13 C         143.7228  138.7845  165.5343 C.3     1  UNL1        0.0369
     14 C         142.8934  139.0692  166.7512 C.3     1  UNL1        0.0738
     15 N         142.5780  140.4861  167.1293 N.3     1  UNL1       -0.2723
     16 C         143.0920  141.6183  166.2904 C.3     1  UNL1        0.0738
     17 C         143.9214  141.3337  165.0734 C.3     1  UNL1        0.0369
     18 C         141.7485  140.7707  168.3463 C.3     1  UNL1        0.0768
     19 C         140.2659  140.9574  168.2165 C.3     1  UNL1        0.0437
     20 C         139.5900  140.7022  166.9020 C.ar    1  UNL1       -0.0206
     21 C         139.4944  141.7985  165.8825 C.ar    1  UNL1       -0.0011
     22 C         138.8186  141.5433  164.5680 C.ar    1  UNL1        0.0366
     23 C         138.2384  140.1919  164.2728 C.ar    1  UNL1        0.1387
     24 C         138.3340  139.0957  165.2921 C.ar    1  UNL1        0.0366
     25 C         139.0098  139.3509  166.6068 C.ar    1  UNL1       -0.0011
     26 O         137.5626  139.9368  162.9582 O.3     1  UNL1       -0.4714
     27 C         137.9141  140.7684  161.7602 C.3     1  UNL1        0.2525
     28 C         144.7299  142.3759  161.7439 C.3     1  UNL1        0.1087
     29 C         143.7019  143.4410  161.9856 C.3     1  UNL1        0.0246
     30 C         144.0190  144.5995  162.8841 C.3     1  UNL1        0.0020
     31 C         142.9520  145.1805  163.7637 C.3     1  UNL1        0.0001
     32 C         141.7709  144.3457  164.1614 C.3     1  UNL1        0.0000
     33 C         140.3829  144.8987  164.0293 C.3     1  UNL1        0.0000
     34 C         139.7137  144.9327  162.6872 C.3     1  UNL1        0.0000
     35 C         139.9304  143.8134  161.7125 C.3     1  UNL1        0.0000
     36 C         141.1518  145.2097  159.8936 C.3     1  UNL1        0.0000
     37 C         140.1938  144.1177  160.2675 C.3     1  UNL1        0.0000
@<TRIPOS>BOND
     1    36    37    1
     2    37    35    1
     3    35    34    1
     4    34    33    1
     5    33    32    1
     6    32    31    1
     7    31    30    1
     8    30    29    1
     9    29    28    1
    10    28     1    1
    11     1     2   ar
    12     2    10    1
    13    10    12    1
    14    12    13    1
    15    13    14    1
    16    14    15    1
    17    15    18    1
    18    18    19    1
    19    19    20    1
    20    20    21   ar
    21    21    22   ar
    22    22    23   ar
    23    23    26    1
    24    26    27    1
    25    23    24   ar
    26    24    25   ar
    27    15    16    1
    28    16    17    1
    29     2     3   ar
    30     3     4   ar
    31     4     5   ar
    32     5     6   ar
    33     6     7   ar
    34     7     8   ar
    35     8     9   ar
    36     9     1   ar
    37    17    12    1
    38     9     4   ar
    39    25    20   ar
    40    10    11    1
@<TRIPOS>MOLECULE
*****
 37 40 0 0 0
SMALL
GASTEIGER

@<TRIPOS>ATOM
      1 N         143.7063  140.1001  160.5419 N.ar    1  UNL1       -0.2998
      2 C         143.3397  138.6581  160.3514 C.ar    1  UNL1        0.1978
      3 N         143.2091  138.4037  158.8789 N.ar    1  UNL1       -0.2138
      4 C         143.4949  139.6885  158.1594 C.ar    1  UNL1        0.0999
      5 C         143.5151  140.0391  156.7011 C.ar    1  UNL1        0.0207
      6 C         143.8425  141.4381  156.2706 C.ar    1  UNL1        0.0016
      7 C         144.1499  142.4866  157.2984 C.ar    1  UNL1        0.0016
      8 C         144.1297  142.1359  158.7567 C.ar    1  UNL1        0.0188
      9 C         143.8022  140.7369  159.1872 C.ar    1  UNL1        0.0798
     10 N         143.1390  137.6479  161.4419 N.pl3   1  UNL1       -0.3059
     11 H         143.7499  136.8798  161.5199 H       1  UNL1        0.1495
     12 C         142.0076  137.8080  162.4137 C.3     1  UNL1        0.0745
     13 C         142.2948  138.0332  163.8686 C.3     1  UNL1        0.0369
     14 C         141.1634  138.1933  164.8404 C.3     1  UNL1        0.0738
     15 N         139.7448  138.1282  164.3572 N.3     1  UNL1       -0.2723
     16 C         139.4577  137.9031  162.9023 C.3     1  UNL1        0.0738
     17 C         140.5891  137.7429  161.9305 C.3     1  UNL1        0.0369
     18 C         138.6134  138.2883  165.3290 C.3     1  UNL1        0.0768
     19 C         138.1234  139.6592  165.6903 C.3     1  UNL1        0.0437
     20 C         138.3398  140.8056  164.7475 C.ar    1  UNL1       -0.0206
     21 C         139.3600  141.8577  165.0677 C.ar    1  UNL1       -0.0011
     22 C         139.5765  143.0041  164.1250 C.ar    1  UNL1        0.0366
     23 C         138.7728  143.0985  162.8620 C.ar    1  UNL1        0.1387
     24 C         137.7526  142.0466  162.5418 C.ar    1  UNL1        0.0366
     25 C         137.5361  140.9001  163.4845 C.ar    1  UNL1       -0.0011
     26 O         138.9892  144.2449  161.9192 O.3     1  UNL1       -0.4714
     27 C         139.5349  145.5448  162.4318 C.3     1  UNL1        0.2525
     28 C         143.9366  140.7851  161.8564 C.3     1  UNL1        0.1087
     29 C         142.8222  141.5465  162.5107 C.3     1  UNL1        0.0246
     30 C         142.7002  143.0266  162.3001 C.3     1  UNL1        0.0020
     31 C         143.0433  143.9731  163.4120 C.3     1  UNL1        0.0001
     32 C         144.2851  143.7565  164.2251 C.3     1  UNL1        0.0000
     33 C         144.1817  143.2339  165.6273 C.3     1  UNL1        0.0000
     34 C         142.9190  142.5686  166.0886 C.3     1  UNL1        0.0000
     35 C         142.8589  141.0746  166.2083 C.3     1  UNL1        0.0000
     36 C         141.1333  140.1832  167.9338 C.3     1  UNL1        0.0000
     37 C         142.5558  140.4400  167.5332 C.3     1  UNL1        0.0000
@<TRIPOS>BOND
     1    36    37    1
     2    37    35    1
     3    35    34    1
     4    34    33    1
     5    33    32    1
     6    32    31    1
     7    31    30    1
     8    30    29    1
     9    29    28    1
    10    28     1    1
    11     1     2   ar
    12     2    10    1
    13    10    12    1
    14    12    13    1
    15    13    14    1
    16    14    15    1
    17    15    18    1
    18    18    19    1
    19    19    20    1
    20    20    21   ar
    21    21    22   ar
    22    22    23   ar
    23    23    26    1
    24    26    27    1
    25    23    24   ar
    26    24    25   ar
    27    15    16    1
    28    16    17    1
    29     2     3   ar
    30     3     4   ar
    31     4     5   ar
    32     5     6   ar
    33     6     7   ar
    34     7     8   ar
    35     8     9   ar
    36     9     1   ar
    37    17    12    1
    38     9     4   ar
    39    25    20   ar
    40    10    11    1
@<TRIPOS>MOLECULE
*****
 37 40 0 0 0
SMALL
GASTEIGER

@<TRIPOS>ATOM
      1 N         141.1052  140.0927  167.5376 N.ar    1  UNL1       -0.2998
      2 C         139.6814  139.8997  167.9682 C.ar    1  UNL1        0.1978
      3 N         139.4586  140.7116  169.2096 N.ar    1  UNL1       -0.2138
      4 C         140.7447  141.4064  169.5462 C.ar    1  UNL1        0.0999
      5 C         141.1205  142.3379  170.6602 C.ar    1  UNL1        0.0207
      6 C         142.5141  142.8869  170.7407 C.ar    1  UNL1        0.0016
      7 C         143.5318  142.5043  169.7073 C.ar    1  UNL1        0.0016
      8 C         143.1559  141.5728  168.5933 C.ar    1  UNL1        0.0188
      9 C         141.7624  141.0238  168.5128 C.ar    1  UNL1        0.0798
     10 N         138.6597  139.0450  167.2785 N.pl3   1  UNL1       -0.3059
     11 H         138.0318  138.5035  167.8093 H       1  UNL1        0.1495
     12 C         138.5949  139.0152  165.7803 C.3     1  UNL1        0.0745
     13 C         138.9323  137.7550  165.0398 C.3     1  UNL1        0.0369
     14 C         138.8674  137.7253  163.5415 C.3     1  UNL1        0.0738
     15 N         138.4652  138.9556  162.7836 N.3     1  UNL1       -0.2723
     16 C         138.1278  140.2158  163.5240 C.3     1  UNL1        0.0738
     17 C         138.1927  140.2456  165.0224 C.3     1  UNL1        0.0369
     18 C         138.4004  138.9258  161.2853 C.3     1  UNL1        0.0768
     19 C         139.6529  139.0924  160.4769 C.3     1  UNL1        0.0437
     20 C         140.2555  140.4545  160.2998 C.ar    1  UNL1       -0.0206
     21 C         141.7333  140.5988  160.0863 C.ar    1  UNL1       -0.0011
     22 C         142.3360  141.9609  159.9092 C.ar    1  UNL1        0.0366
     23 C         141.4610  143.1787  159.9455 C.ar    1  UNL1        0.1387
     24 C         139.9833  143.0344  160.1590 C.ar    1  UNL1        0.0366
     25 C         139.3805  141.6723  160.3361 C.ar    1  UNL1       -0.0011
     26 O         142.0636  144.5408  159.7684 O.3     1  UNL1       -0.4714
     27 C         141.5560  145.4511  158.6896 C.3     1  UNL1        0.2525
     28 C         141.7574  139.4647  166.3416 C.3     1  UNL1        0.1087
     29 C         142.1138  140.3072  165.1529 C.3     1  UNL1        0.0246
     30 C         142.2773  139.6708  163.8044 C.3     1  UNL1        0.0020
     31 C         143.6468  139.3254  163.2992 C.3     1  UNL1        0.0001
     32 C         144.8615  139.8242  164.0242 C.3     1  UNL1        0.0000
     33 C         145.3451  141.2264  163.8008 C.3     1  UNL1        0.0000
     34 C         145.1351  141.8895  162.4719 C.3     1  UNL1        0.0000
     35 C         144.6062  143.2917  162.4085 C.3     1  UNL1        0.0000
     36 C         142.2561  143.4671  163.5024 C.3     1  UNL1        0.0000
     37 C         143.7169  143.8079  163.5008 C.3     1  UNL1        0.0000
@<TRIPOS>BOND
     1    36    37    1
     2    37    35    1
     3    35    34    1
     4    34    33    1
     5    33    32    1
     6    32    31    1
     7    31    30    1
     8    30    29    1
     9    29    28    1
    10    28     1    1
    11     1     2   ar
    12     2    10    1
    13    10    12    1
    14    12    13    1
    15    13    14    1
    16    14    15    1
    17    15    18    1
    18    18    19    1
    19    19    20    1
    20    20    21   ar
    21    21    22   ar
    22    22    23   ar
    23    23    26    1
    24    26    27    1
    25    23    24   ar
    26    24    25   ar
    27    15    16    1
    28    16    17    1
    29     2     3   ar
    30     3     4   ar
    31     4     5   ar
    32     5     6   ar
    33     6     7   ar
    34     7     8   ar
    35     8     9   ar
    36     9     1   ar
    37    17    12    1
    38     9     4   ar
    39    25    20   ar
    40    10    11    1
