@<TRIPOS>MOLECULE
*****
 32 36 0 0 0
SMALL
GASTEIGER

@<TRIPOS>ATOM
      1 C         140.3617  138.6780  163.0826 C.ar    1  UNL1        0.1129
      2 N         140.9583  139.5612  164.1381 N.ar    1  UNL1       -0.2383
      3 C         140.1120  139.4466  165.3712 C.ar    1  UNL1        0.0875
      4 C         140.2163  140.0878  166.7232 C.ar    1  UNL1        0.0157
      5 C         139.2008  139.7749  167.7819 C.ar    1  UNL1       -0.0162
      6 C         138.0810  138.8209  167.4886 C.ar    1  UNL1       -0.0033
      7 C         137.9768  138.1797  166.1365 C.ar    1  UNL1        0.0077
      8 C         138.9922  138.4926  165.0778 C.ar    1  UNL1        0.0485
      9 S         139.1466  138.0176  163.6634 S.2     1  UNL1       -0.0664
     10 C         141.9399  138.1095  158.9070 C.ar    1  UNL1       -0.0039
     11 C         140.5292  138.5731  159.1189 C.ar    1  UNL1       -0.0027
     12 C         140.0031  138.7626  160.5108 C.ar    1  UNL1        0.0040
     13 C         140.8878  138.4885  161.6907 C.ar    1  UNL1        0.0512
     14 C         142.2985  138.0249  161.4788 C.ar    1  UNL1        0.1418
     15 F         143.1832  137.7508  162.6587 F       1  UNL1       -0.2041
     16 C         142.8245  137.8354  160.0869 C.ar    1  UNL1        0.0268
     17 C         142.4660  137.9200  157.5151 C.3     1  UNL1        0.0992
     18 C         142.3453  134.6502  155.9633 C.3     1  UNL1        0.0684
     19 C         143.1715  135.2813  157.0446 C.3     1  UNL1        0.0793
     20 N         142.4160  136.5657  156.8723 N.3     1  UNL1       -0.2682
     21 C         141.5899  135.9346  155.7910 C.3     1  UNL1        0.0793
     22 O         142.6212  133.1443  153.8642 O.co2   1  UNL1       -0.5491
     23 C         142.2954  133.2958  155.3205 C.2     1  UNL1        0.0527
     24 O         141.9196  132.0930  156.1341 O.co2   1  UNL1       -0.5491
     25 C         139.3050  140.4160  169.1340 C.3     1  UNL1        0.0549
     26 C         140.5315  141.1979  169.5008 C.ar    1  UNL1        0.0097
     27 C         140.4692  142.6942  169.5865 C.ar    1  UNL1       -0.0017
     28 C         141.6956  143.4761  169.9533 C.ar    1  UNL1       -0.0002
     29 C         142.9844  142.7617  170.2342 C.ar    1  UNL1        0.0023
     30 C         143.0466  141.2655  170.1484 C.ar    1  UNL1        0.0293
     31 C         141.8202  140.4836  169.7817 C.ar    1  UNL1        0.1365
     32 F         141.8825  138.9873  169.6959 F       1  UNL1       -0.2045
@<TRIPOS>UNITY_ATOM_ATTR
22 1
charge -1
@<TRIPOS>BOND
     1    22    23   ar
     2    23    24   ar
     3    23    18    1
     4    18    19    1
     5    19    20    1
     6    20    17    1
     7    17    10    1
     8    10    11   ar
     9    11    12   ar
    10    12    13   ar
    11    13     1    1
    12     1     2   ar
    13     2     3   ar
    14     3     4   ar
    15     4     5   ar
    16     5    25    1
    17    25    26    1
    18    26    27   ar
    19    27    28   ar
    20    28    29   ar
    21    29    30   ar
    22    30    31   ar
    23    31    32    1
    24     5     6   ar
    25     6     7   ar
    26     7     8   ar
    27     8     9   ar
    28    13    14   ar
    29    14    15    1
    30    14    16   ar
    31    20    21    1
    32    21    18    1
    33    16    10   ar
    34     9     1   ar
    35     8     3   ar
    36    31    26   ar
@<TRIPOS>MOLECULE
*****
 32 36 0 0 0
SMALL
GASTEIGER

@<TRIPOS>ATOM
      1 C         140.6970  139.0177  162.8240 C.ar    1  UNL1        0.1129
      2 N         141.2309  139.8275  163.9682 N.ar    1  UNL1       -0.2383
      3 C         140.3306  139.6120  165.1485 C.ar    1  UNL1        0.0875
      4 C         140.3627  140.1526  166.5473 C.ar    1  UNL1        0.0157
      5 C         139.3045  139.7503  167.5313 C.ar    1  UNL1       -0.0162
      6 C         138.2142  138.8073  167.1165 C.ar    1  UNL1       -0.0033
      7 C         138.1821  138.2666  165.7178 C.ar    1  UNL1        0.0077
      8 C         139.2403  138.6690  164.7337 C.ar    1  UNL1        0.0485
      9 S         139.4668  138.3017  163.2971 S.2     1  UNL1       -0.0664
     10 C         142.4742  138.7782  158.6968 C.ar    1  UNL1       -0.0039
     11 C         141.1452  139.4422  158.9037 C.ar    1  UNL1       -0.0027
     12 C         140.5528  139.5220  160.2795 C.ar    1  UNL1        0.0040
     13 C         141.2894  138.9378  161.4483 C.ar    1  UNL1        0.0512
     14 C         142.6184  138.2739  161.2413 C.ar    1  UNL1        0.1418
     15 F         143.3551  137.6896  162.4101 F       1  UNL1       -0.2041
     16 C         143.2108  138.1940  159.8656 C.ar    1  UNL1        0.0268
     17 C         143.0666  138.6984  157.3210 C.3     1  UNL1        0.0992
     18 C         145.5178  141.1439  156.2603 C.3     1  UNL1        0.0684
     19 C         145.0036  139.8484  155.7062 C.3     1  UNL1        0.0793
     20 N         144.0819  139.7113  156.8817 N.3     1  UNL1       -0.2682
     21 C         144.5962  141.0069  157.4358 C.3     1  UNL1        0.0793
     22 O         147.8883  142.1878  156.4634 O.co2   1  UNL1       -0.5491
     23 C         146.5331  142.1569  155.8210 C.2     1  UNL1        0.0527
     24 O         146.1933  143.1389  154.7393 O.co2   1  UNL1       -0.5491
     25 C         139.3366  140.2909  168.9302 C.3     1  UNL1        0.0549
     26 C         140.4892  141.1389  169.3802 C.ar    1  UNL1        0.0097
     27 C         140.3253  142.6252  169.4990 C.ar    1  UNL1       -0.0017
     28 C         141.4778  143.4732  169.9491 C.ar    1  UNL1       -0.0002
     29 C         142.7943  142.8349  170.2803 C.ar    1  UNL1        0.0023
     30 C         142.9581  141.3486  170.1615 C.ar    1  UNL1        0.0293
     31 C         141.8055  140.5006  169.7115 C.ar    1  UNL1        0.1365
     32 F         141.9694  139.0143  169.5927 F       1  UNL1       -0.2045
@<TRIPOS>UNITY_ATOM_ATTR
22 1
charge -1
@<TRIPOS>BOND
     1    22    23   ar
     2    23    24   ar
     3    23    18    1
     4    18    19    1
     5    19    20    1
     6    20    17    1
     7    17    10    1
     8    10    11   ar
     9    11    12   ar
    10    12    13   ar
    11    13     1    1
    12     1     2   ar
    13     2     3   ar
    14     3     4   ar
    15     4     5   ar
    16     5    25    1
    17    25    26    1
    18    26    27   ar
    19    27    28   ar
    20    28    29   ar
    21    29    30   ar
    22    30    31   ar
    23    31    32    1
    24     5     6   ar
    25     6     7   ar
    26     7     8   ar
    27     8     9   ar
    28    13    14   ar
    29    14    15    1
    30    14    16   ar
    31    20    21    1
    32    21    18    1
    33    16    10   ar
    34     9     1   ar
    35     8     3   ar
    36    31    26   ar
@<TRIPOS>MOLECULE
*****
 32 36 0 0 0
SMALL
GASTEIGER

@<TRIPOS>ATOM
      1 C         139.0028  139.1666  161.6428 C.ar    1  UNL1        0.1129
      2 N         140.1312  138.5233  160.8925 N.ar    1  UNL1       -0.2383
      3 C         139.9795  138.8694  159.4409 C.ar    1  UNL1        0.0875
      4 C         140.7963  138.5147  158.2339 C.ar    1  UNL1        0.0157
      5 C         140.3909  139.0172  156.8800 C.ar    1  UNL1       -0.0162
      6 C         139.1687  139.8743  156.7331 C.ar    1  UNL1       -0.0033
      7 C         138.3519  140.2289  157.9401 C.ar    1  UNL1        0.0077
      8 C         138.7573  139.7264  159.2940 C.ar    1  UNL1        0.0485
      9 S         138.1537  139.9101  160.6549 S.2     1  UNL1       -0.0664
     10 C         138.2902  138.9105  166.0787 C.ar    1  UNL1       -0.0039
     11 C         138.6418  137.6757  165.3030 C.ar    1  UNL1       -0.0027
     12 C         138.8793  137.7611  163.8244 C.ar    1  UNL1        0.0040
     13 C         138.7653  139.0812  163.1215 C.ar    1  UNL1        0.0512
     14 C         138.4137  140.3160  163.8971 C.ar    1  UNL1        0.1418
     15 F         138.2996  141.6362  163.1941 F       1  UNL1       -0.2041
     16 C         138.1761  140.2306  165.3757 C.ar    1  UNL1        0.0268
     17 C         138.0526  138.8251  167.5573 C.3     1  UNL1        0.0992
     18 C         139.9901  140.8800  169.8241 C.3     1  UNL1        0.0684
     19 C         138.6140  140.2832  169.8465 C.3     1  UNL1        0.0793
     20 N         138.8551  139.6762  168.4962 N.3     1  UNL1       -0.2682
     21 C         140.2312  140.2730  168.4738 C.3     1  UNL1        0.0793
     22 O         141.7363  141.0893  171.7364 O.co2   1  UNL1       -0.5491
     23 C         140.7925  141.7311  170.7630 C.2     1  UNL1        0.0527
     24 O         140.6513  143.2240  170.7286 O.co2   1  UNL1       -0.5491
     25 C         141.2078  138.6626  155.6728 C.3     1  UNL1        0.0549
     26 C         141.9065  137.3371  155.6030 C.ar    1  UNL1        0.0097
     27 C         141.1090  136.0763  155.4456 C.ar    1  UNL1       -0.0017
     28 C         141.8077  134.7508  155.3759 C.ar    1  UNL1       -0.0002
     29 C         143.3038  134.6860  155.4635 C.ar    1  UNL1        0.0023
     30 C         144.1011  135.9467  155.6209 C.ar    1  UNL1        0.0293
     31 C         143.4025  137.2723  155.6906 C.ar    1  UNL1        0.1365
     32 F         144.1999  138.5330  155.8480 F       1  UNL1       -0.2045
@<TRIPOS>UNITY_ATOM_ATTR
22 1
charge -1
@<TRIPOS>BOND
     1    22    23   ar
     2    23    24   ar
     3    23    18    1
     4    18    19    1
     5    19    20    1
     6    20    17    1
     7    17    10    1
     8    10    11   ar
     9    11    12   ar
    10    12    13   ar
    11    13     1    1
    12     1     2   ar
    13     2     3   ar
    14     3     4   ar
    15     4     5   ar
    16     5    25    1
    17    25    26    1
    18    26    27   ar
    19    27    28   ar
    20    28    29   ar
    21    29    30   ar
    22    30    31   ar
    23    31    32    1
    24     5     6   ar
    25     6     7   ar
    26     7     8   ar
    27     8     9   ar
    28    13    14   ar
    29    14    15    1
    30    14    16   ar
    31    20    21    1
    32    21    18    1
    33    16    10   ar
    34     9     1   ar
    35     8     3   ar
    36    31    26   ar
@<TRIPOS>MOLECULE
*****
 32 36 0 0 0
SMALL
GASTEIGER

@<TRIPOS>ATOM
      1 C         142.1671  138.3095  161.1334 C.ar    1  UNL1        0.1129
      2 N         143.1224  137.6806  160.1629 N.ar    1  UNL1       -0.2383
      3 C         142.5024  137.7390  158.7983 C.ar    1  UNL1        0.0875
      4 C         142.9837  137.2725  157.4564 C.ar    1  UNL1        0.0157
      5 C         142.1265  137.4710  156.2417 C.ar    1  UNL1       -0.0162
      6 C         140.7880  138.1359  156.3688 C.ar    1  UNL1       -0.0033
      7 C         140.3066  138.6024  157.7106 C.ar    1  UNL1        0.0077
      8 C         141.1638  138.4039  158.9254 C.ar    1  UNL1        0.0485
      9 S         140.9566  138.7565  160.3686 S.2     1  UNL1       -0.0664
     10 C         142.8181  138.7737  165.5618 C.ar    1  UNL1       -0.0039
     11 C         141.7387  137.8646  165.0537 C.ar    1  UNL1       -0.0027
     12 C         141.5216  137.7099  163.5776 C.ar    1  UNL1        0.0040
     13 C         142.3841  138.4643  162.6096 C.ar    1  UNL1        0.0512
     14 C         143.4636  139.3733  163.1177 C.ar    1  UNL1        0.1418
     15 F         144.3261  140.1277  162.1497 F       1  UNL1       -0.2041
     16 C         143.6806  139.5280  164.5938 C.ar    1  UNL1        0.0268
     17 C         143.0352  138.9284  167.0380 C.3     1  UNL1        0.0992
     18 C         140.3811  140.2264  169.1321 C.3     1  UNL1        0.0684
     19 C         140.5455  139.9740  167.6626 C.3     1  UNL1        0.0793
     20 N         141.9359  139.4661  167.9053 N.3     1  UNL1       -0.2682
     21 C         141.7714  139.7185  169.3748 C.3     1  UNL1        0.0793
     22 O         139.3699  142.1592  170.5434 O.co2   1  UNL1       -0.5491
     23 C         139.2818  140.7640  169.9995 C.2     1  UNL1        0.0527
     24 O         138.0943  139.9065  170.3230 O.co2   1  UNL1       -0.5491
     25 C         142.6078  137.0045  154.8997 C.3     1  UNL1        0.0549
     26 C         142.3719  135.5870  154.4694 C.ar    1  UNL1        0.0097
     27 C         141.3552  135.2846  153.4087 C.ar    1  UNL1       -0.0017
     28 C         141.1193  133.8671  152.9785 C.ar    1  UNL1       -0.0002
     29 C         141.8999  132.7521  153.6090 C.ar    1  UNL1        0.0023
     30 C         142.9165  133.0546  154.6696 C.ar    1  UNL1        0.0293
     31 C         143.1525  134.4721  155.0999 C.ar    1  UNL1        0.1365
     32 F         144.1691  134.7745  156.1606 F       1  UNL1       -0.2045
@<TRIPOS>UNITY_ATOM_ATTR
22 1
charge -1
@<TRIPOS>BOND
     1    22    23   ar
     2    23    24   ar
     3    23    18    1
     4    18    19    1
     5    19    20    1
     6    20    17    1
     7    17    10    1
     8    10    11   ar
     9    11    12   ar
    10    12    13   ar
    11    13     1    1
    12     1     2   ar
    13     2     3   ar
    14     3     4   ar
    15     4     5   ar
    16     5    25    1
    17    25    26    1
    18    26    27   ar
    19    27    28   ar
    20    28    29   ar
    21    29    30   ar
    22    30    31   ar
    23    31    32    1
    24     5     6   ar
    25     6     7   ar
    26     7     8   ar
    27     8     9   ar
    28    13    14   ar
    29    14    15    1
    30    14    16   ar
    31    20    21    1
    32    21    18    1
    33    16    10   ar
    34     9     1   ar
    35     8     3   ar
    36    31    26   ar
@<TRIPOS>MOLECULE
*****
 32 36 0 0 0
SMALL
GASTEIGER

@<TRIPOS>ATOM
      1 C         138.6548  139.3528  161.6730 C.ar    1  UNL1        0.1129
      2 N         137.8586  140.2964  160.8212 N.ar    1  UNL1       -0.2383
      3 C         138.2766  140.0979  159.3943 C.ar    1  UNL1        0.0875
      4 C         137.8333  140.7504  158.1185 C.ar    1  UNL1        0.0157
      5 C         138.4445  140.3365  156.8127 C.ar    1  UNL1       -0.0162
      6 C         139.4990  139.2702  156.7827 C.ar    1  UNL1       -0.0033
      7 C         139.9424  138.6177  158.0585 C.ar    1  UNL1        0.0077
      8 C         139.3312  139.0316  159.3643 C.ar    1  UNL1        0.0485
      9 S         139.5649  138.5711  160.7726 S.2     1  UNL1       -0.0664
     10 C         138.3642  138.9395  166.1446 C.ar    1  UNL1       -0.0039
     11 C         138.7370  137.7541  165.3045 C.ar    1  UNL1       -0.0027
     12 C         138.8339  137.8919  163.8140 C.ar    1  UNL1        0.0040
     13 C         138.5579  139.2150  163.1635 C.ar    1  UNL1        0.0512
     14 C         138.1851  140.4004  164.0036 C.ar    1  UNL1        0.1418
     15 F         137.9091  141.7236  163.3532 F       1  UNL1       -0.2041
     16 C         138.0882  140.2627  165.4941 C.ar    1  UNL1        0.0268
     17 C         138.2673  138.8018  167.6351 C.3     1  UNL1        0.0992
     18 C         139.6996  141.3396  169.7850 C.3     1  UNL1        0.0684
     19 C         138.5950  140.3339  169.9213 C.3     1  UNL1        0.0793
     20 N         138.8606  139.8529  168.5256 N.3     1  UNL1       -0.2682
     21 C         139.9652  140.8585  168.3893 C.3     1  UNL1        0.0793
     22 O         141.2872  142.0059  171.7306 O.co2   1  UNL1       -0.5491
     23 C         140.2929  142.3907  170.6755 C.2     1  UNL1        0.0527
     24 O         139.8919  143.8267  170.5109 O.co2   1  UNL1       -0.5491
     25 C         138.0011  140.9890  155.5369 C.3     1  UNL1        0.0549
     26 C         138.1315  142.4739  155.3691 C.ar    1  UNL1        0.0097
     27 C         139.3826  143.1718  155.8138 C.ar    1  UNL1       -0.0017
     28 C         139.5130  144.6567  155.6461 C.ar    1  UNL1       -0.0002
     29 C         138.3923  145.4436  155.0337 C.ar    1  UNL1        0.0023
     30 C         137.1413  144.7456  154.5891 C.ar    1  UNL1        0.0293
     31 C         137.0109  143.2607  154.7568 C.ar    1  UNL1        0.1365
     32 F         135.7598  142.5627  154.3121 F       1  UNL1       -0.2045
@<TRIPOS>UNITY_ATOM_ATTR
22 1
charge -1
@<TRIPOS>BOND
     1    22    23   ar
     2    23    24   ar
     3    23    18    1
     4    18    19    1
     5    19    20    1
     6    20    17    1
     7    17    10    1
     8    10    11   ar
     9    11    12   ar
    10    12    13   ar
    11    13     1    1
    12     1     2   ar
    13     2     3   ar
    14     3     4   ar
    15     4     5   ar
    16     5    25    1
    17    25    26    1
    18    26    27   ar
    19    27    28   ar
    20    28    29   ar
    21    29    30   ar
    22    30    31   ar
    23    31    32    1
    24     5     6   ar
    25     6     7   ar
    26     7     8   ar
    27     8     9   ar
    28    13    14   ar
    29    14    15    1
    30    14    16   ar
    31    20    21    1
    32    21    18    1
    33    16    10   ar
    34     9     1   ar
    35     8     3   ar
    36    31    26   ar
@<TRIPOS>MOLECULE
*****
 32 36 0 0 0
SMALL
GASTEIGER

@<TRIPOS>ATOM
      1 C         139.5165  143.0655  160.5877 C.ar    1  UNL1        0.1129
      2 N         140.6907  142.7542  161.4677 N.ar    1  UNL1       -0.2383
      3 C         140.1710  142.1455  162.7362 C.ar    1  UNL1        0.0875
      4 C         140.8662  141.6420  163.9663 C.ar    1  UNL1        0.0157
      5 C         140.0659  141.0734  165.1004 C.ar    1  UNL1       -0.0162
      6 C         138.5704  141.0084  165.0045 C.ar    1  UNL1       -0.0033
      7 C         137.8752  141.5119  163.7745 C.ar    1  UNL1        0.0077
      8 C         138.6754  142.0805  162.6403 C.ar    1  UNL1        0.0485
      9 S         138.2710  142.6491  161.3125 S.2     1  UNL1       -0.0664
     10 C         139.6984  144.9223  156.4928 C.ar    1  UNL1       -0.0039
     11 C         138.9718  143.6260  156.6969 C.ar    1  UNL1       -0.0027
     12 C         138.9112  143.0071  158.0618 C.ar    1  UNL1        0.0040
     13 C         139.5771  143.6844  159.2227 C.ar    1  UNL1        0.0512
     14 C         140.3036  144.9807  159.0186 C.ar    1  UNL1        0.1418
     15 F         140.9696  145.6582  160.1796 F       1  UNL1       -0.2041
     16 C         140.3643  145.5997  157.6536 C.ar    1  UNL1        0.0268
     17 C         139.7590  145.5413  155.1278 C.3     1  UNL1        0.0992
     18 C         139.5130  149.1352  154.7566 C.3     1  UNL1        0.0684
     19 C         140.2455  148.0421  154.0365 C.3     1  UNL1        0.0793
     20 N         139.6571  147.0299  154.9741 N.3     1  UNL1       -0.2682
     21 C         138.9245  148.1230  155.6942 C.3     1  UNL1        0.0793
     22 O         139.7015  151.5200  155.7702 O.co2   1  UNL1       -0.5491
     23 C         139.4111  150.6238  154.6029 C.2     1  UNL1        0.0527
     24 O         139.0188  151.2162  153.2819 O.co2   1  UNL1       -0.5491
     25 C         140.7612  140.5699  166.3305 C.3     1  UNL1        0.0549
     26 C         140.4641  141.1863  167.6654 C.ar    1  UNL1        0.0097
     27 C         141.1299  142.4702  168.0634 C.ar    1  UNL1       -0.0017
     28 C         140.8328  143.0867  169.3982 C.ar    1  UNL1       -0.0002
     29 C         139.8698  142.4192  170.3350 C.ar    1  UNL1        0.0023
     30 C         139.2041  141.1354  169.9369 C.ar    1  UNL1        0.0293
     31 C         139.5012  140.5190  168.6021 C.ar    1  UNL1        0.1365
     32 F         138.8354  139.2351  168.2040 F       1  UNL1       -0.2045
@<TRIPOS>UNITY_ATOM_ATTR
22 1
charge -1
@<TRIPOS>BOND
     1    22    23   ar
     2    23    24   ar
     3    23    18    1
     4    18    19    1
     5    19    20    1
     6    20    17    1
     7    17    10    1
     8    10    11   ar
     9    11    12   ar
    10    12    13   ar
    11    13     1    1
    12     1     2   ar
    13     2     3   ar
    14     3     4   ar
    15     4     5   ar
    16     5    25    1
    17    25    26    1
    18    26    27   ar
    19    27    28   ar
    20    28    29   ar
    21    29    30   ar
    22    30    31   ar
    23    31    32    1
    24     5     6   ar
    25     6     7   ar
    26     7     8   ar
    27     8     9   ar
    28    13    14   ar
    29    14    15    1
    30    14    16   ar
    31    20    21    1
    32    21    18    1
    33    16    10   ar
    34     9     1   ar
    35     8     3   ar
    36    31    26   ar
@<TRIPOS>MOLECULE
*****
 32 36 0 0 0
SMALL
GASTEIGER

@<TRIPOS>ATOM
      1 C         140.8280  139.2798  161.3114 C.ar    1  UNL1        0.1129
      2 N         140.8753  138.5546  162.6236 N.ar    1  UNL1       -0.2383
      3 C         140.5938  139.5472  163.7123 C.ar    1  UNL1        0.0875
      4 C         140.5104  139.4050  165.2032 C.ar    1  UNL1        0.0157
      5 C         140.2057  140.6016  166.0549 C.ar    1  UNL1       -0.0162
      6 C         139.9844  141.9404  165.4156 C.ar    1  UNL1       -0.0033
      7 C         140.0678  142.0826  163.9247 C.ar    1  UNL1        0.0077
      8 C         140.3725  140.8860  163.0731 C.ar    1  UNL1        0.0485
      9 S         140.5173  140.7207  161.5893 S.2     1  UNL1       -0.0664
     10 C         141.5002  137.4536  157.2540 C.ar    1  UNL1       -0.0039
     11 C         140.1365  137.9461  157.6382 C.ar    1  UNL1       -0.0027
     12 C         139.9124  138.5548  158.9907 C.ar    1  UNL1        0.0040
     13 C         141.0521  138.6711  159.9589 C.ar    1  UNL1        0.0512
     14 C         142.4158  138.1786  159.5747 C.ar    1  UNL1        0.1418
     15 F         143.5556  138.2948  160.5431 F       1  UNL1       -0.2041
     16 C         142.6399  137.5698  158.2223 C.ar    1  UNL1        0.0268
     17 C         141.7243  136.8449  155.9015 C.3     1  UNL1        0.0992
     18 C         143.3044  133.5989  155.6160 C.3     1  UNL1        0.0684
     19 C         141.8874  134.0902  155.6418 C.3     1  UNL1        0.0793
     20 N         142.3788  135.5004  155.7832 N.3     1  UNL1       -0.2682
     21 C         143.7958  135.0090  155.7575 C.3     1  UNL1        0.0793
     22 O         145.2599  131.9896  156.1959 O.co2   1  UNL1       -0.5491
     23 C         143.9589  132.2544  155.4978 C.2     1  UNL1        0.0527
     24 O         143.3124  131.1748  154.6814 O.co2   1  UNL1       -0.5491
     25 C         140.1223  140.4594  167.5458 C.3     1  UNL1        0.0549
     26 C         141.0087  141.2868  168.4289 C.ar    1  UNL1        0.0097
     27 C         140.4855  142.5515  169.0428 C.ar    1  UNL1       -0.0017
     28 C         141.3719  143.3790  169.9259 C.ar    1  UNL1       -0.0002
     29 C         142.7813  142.9417  170.1949 C.ar    1  UNL1        0.0023
     30 C         143.3044  141.6770  169.5810 C.ar    1  UNL1        0.0293
     31 C         142.4180  140.8496  168.6979 C.ar    1  UNL1        0.1365
     32 F         142.9412  139.5849  168.0840 F       1  UNL1       -0.2045
@<TRIPOS>UNITY_ATOM_ATTR
22 1
charge -1
@<TRIPOS>BOND
     1    22    23   ar
     2    23    24   ar
     3    23    18    1
     4    18    19    1
     5    19    20    1
     6    20    17    1
     7    17    10    1
     8    10    11   ar
     9    11    12   ar
    10    12    13   ar
    11    13     1    1
    12     1     2   ar
    13     2     3   ar
    14     3     4   ar
    15     4     5   ar
    16     5    25    1
    17    25    26    1
    18    26    27   ar
    19    27    28   ar
    20    28    29   ar
    21    29    30   ar
    22    30    31   ar
    23    31    32    1
    24     5     6   ar
    25     6     7   ar
    26     7     8   ar
    27     8     9   ar
    28    13    14   ar
    29    14    15    1
    30    14    16   ar
    31    20    21    1
    32    21    18    1
    33    16    10   ar
    34     9     1   ar
    35     8     3   ar
    36    31    26   ar
@<TRIPOS>MOLECULE
*****
 32 36 0 0 0
SMALL
GASTEIGER

@<TRIPOS>ATOM
      1 C         143.3430  139.7028  158.2833 C.ar    1  UNL1        0.1129
      2 N         143.8527  139.1813  159.5941 N.ar    1  UNL1       -0.2383
      3 C         142.6727  138.7373  160.4067 C.ar    1  UNL1        0.0875
      4 C         142.5663  138.1399  161.7785 C.ar    1  UNL1        0.0157
      5 C         141.2209  137.7896  162.3417 C.ar    1  UNL1       -0.0162
      6 C         139.9819  138.0367  161.5331 C.ar    1  UNL1       -0.0033
      7 C         140.0883  138.6341  160.1614 C.ar    1  UNL1        0.0077
      8 C         141.4336  138.9844  159.5982 C.ar    1  UNL1        0.0485
      9 S         141.8479  139.5811  158.2858 S.2     1  UNL1       -0.0664
     10 C         145.8575  141.3443  154.9317 C.ar    1  UNL1       -0.0039
     11 C         145.1059  140.0596  154.7457 C.ar    1  UNL1       -0.0027
     12 C         144.2677  139.5125  155.8628 C.ar    1  UNL1        0.0040
     13 C         144.1812  140.2500  157.1661 C.ar    1  UNL1        0.0512
     14 C         144.9328  141.5346  157.3522 C.ar    1  UNL1        0.1418
     15 F         144.8462  142.2722  158.6555 F       1  UNL1       -0.2041
     16 C         145.7710  142.0818  156.2350 C.ar    1  UNL1        0.0268
     17 C         146.6957  141.8914  153.8146 C.3     1  UNL1        0.0992
     18 C         150.3011  141.9939  154.1386 C.3     1  UNL1        0.0684
     19 C         149.1608  141.6949  155.0662 C.3     1  UNL1        0.0793
     20 N         148.1891  141.9339  153.9488 N.3     1  UNL1       -0.2682
     21 C         149.3294  142.2329  153.0212 C.3     1  UNL1        0.0793
     22 O         152.4440  143.1160  155.0866 O.co2   1  UNL1       -0.5491
     23 C         151.7945  142.0363  154.2728 C.2     1  UNL1        0.0527
     24 O         152.6383  140.9991  153.5931 O.co2   1  UNL1       -0.5491
     25 C         141.1145  137.1922  163.7135 C.3     1  UNL1        0.0549
     26 C         140.3813  137.9267  164.7966 C.ar    1  UNL1        0.0097
     27 C         138.9505  137.5895  165.0953 C.ar    1  UNL1       -0.0017
     28 C         138.2173  138.3240  166.1784 C.ar    1  UNL1       -0.0002
     29 C         138.9149  139.3956  166.9626 C.ar    1  UNL1        0.0023
     30 C         140.3456  139.7327  166.6639 C.ar    1  UNL1        0.0293
     31 C         141.0788  138.9983  165.5808 C.ar    1  UNL1        0.1365
     32 F         142.5097  139.3354  165.2821 F       1  UNL1       -0.2045
@<TRIPOS>UNITY_ATOM_ATTR
22 1
charge -1
@<TRIPOS>BOND
     1    22    23   ar
     2    23    24   ar
     3    23    18    1
     4    18    19    1
     5    19    20    1
     6    20    17    1
     7    17    10    1
     8    10    11   ar
     9    11    12   ar
    10    12    13   ar
    11    13     1    1
    12     1     2   ar
    13     2     3   ar
    14     3     4   ar
    15     4     5   ar
    16     5    25    1
    17    25    26    1
    18    26    27   ar
    19    27    28   ar
    20    28    29   ar
    21    29    30   ar
    22    30    31   ar
    23    31    32    1
    24     5     6   ar
    25     6     7   ar
    26     7     8   ar
    27     8     9   ar
    28    13    14   ar
    29    14    15    1
    30    14    16   ar
    31    20    21    1
    32    21    18    1
    33    16    10   ar
    34     9     1   ar
    35     8     3   ar
    36    31    26   ar
@<TRIPOS>MOLECULE
*****
 32 36 0 0 0
SMALL
GASTEIGER

@<TRIPOS>ATOM
      1 C         139.4684  139.0490  161.7327 C.ar    1  UNL1        0.1129
      2 N         138.6557  139.6487  160.6237 N.ar    1  UNL1       -0.2383
      3 C         139.4007  139.4410  159.3385 C.ar    1  UNL1        0.0875
      4 C         139.0842  139.8207  157.9223 C.ar    1  UNL1        0.0157
      5 C         140.0409  139.4724  156.8208 C.ar    1  UNL1       -0.0162
      6 C         141.3140  138.7443  157.1354 C.ar    1  UNL1       -0.0033
      7 C         141.6305  138.3646  158.5516 C.ar    1  UNL1        0.0077
      8 C         140.6738  138.7129  159.6531 C.ar    1  UNL1        0.0485
      9 S         140.7157  138.4706  161.1328 S.2     1  UNL1       -0.0664
     10 C         138.3595  138.9945  166.0936 C.ar    1  UNL1       -0.0039
     11 C         138.6127  137.7064  165.3680 C.ar    1  UNL1       -0.0027
     12 C         138.9824  137.7245  163.9144 C.ar    1  UNL1        0.0040
     13 C         139.0988  139.0308  163.1864 C.ar    1  UNL1        0.0512
     14 C         138.8456  140.3189  163.9120 C.ar    1  UNL1        0.1418
     15 F         138.9621  141.6253  163.1840 F       1  UNL1       -0.2041
     16 C         138.4760  140.3008  165.3656 C.ar    1  UNL1        0.0268
     17 C         137.9899  138.9763  167.5473 C.3     1  UNL1        0.0992
     18 C         140.1171  140.6150  169.9771 C.3     1  UNL1        0.0684
     19 C         140.3275  140.0068  168.6221 C.3     1  UNL1        0.0793
     20 N         138.8710  139.6551  168.5537 N.3     1  UNL1       -0.2682
     21 C         138.6606  140.2632  169.9087 C.3     1  UNL1        0.0793
     22 O         140.4035  142.2408  171.9832 O.co2   1  UNL1       -0.5491
     23 C         140.9982  141.2937  170.9836 C.2     1  UNL1        0.0527
     24 O         142.4739  141.0253  170.9904 O.co2   1  UNL1       -0.5491
     25 C         139.7244  139.8522  155.4045 C.3     1  UNL1        0.0549
     26 C         138.8698  138.9539  154.5603 C.ar    1  UNL1        0.0097
     27 C         139.5075  137.9049  153.6983 C.ar    1  UNL1       -0.0017
     28 C         138.6529  137.0066  152.8541 C.ar    1  UNL1       -0.0002
     29 C         137.1605  137.1574  152.8718 C.ar    1  UNL1        0.0023
     30 C         136.5229  138.2064  153.7337 C.ar    1  UNL1        0.0293
     31 C         137.3775  139.1047  154.5780 C.ar    1  UNL1        0.1365
     32 F         136.7398  140.1537  155.4399 F       1  UNL1       -0.2045
@<TRIPOS>UNITY_ATOM_ATTR
22 1
charge -1
@<TRIPOS>BOND
     1    22    23   ar
     2    23    24   ar
     3    23    18    1
     4    18    19    1
     5    19    20    1
     6    20    17    1
     7    17    10    1
     8    10    11   ar
     9    11    12   ar
    10    12    13   ar
    11    13     1    1
    12     1     2   ar
    13     2     3   ar
    14     3     4   ar
    15     4     5   ar
    16     5    25    1
    17    25    26    1
    18    26    27   ar
    19    27    28   ar
    20    28    29   ar
    21    29    30   ar
    22    30    31   ar
    23    31    32    1
    24     5     6   ar
    25     6     7   ar
    26     7     8   ar
    27     8     9   ar
    28    13    14   ar
    29    14    15    1
    30    14    16   ar
    31    20    21    1
    32    21    18    1
    33    16    10   ar
    34     9     1   ar
    35     8     3   ar
    36    31    26   ar
