@<TRIPOS>MOLECULE
*****
 33 37 0 0 0
SMALL
GASTEIGER

@<TRIPOS>ATOM
      1 C         143.8679  131.5697  155.3548 C.ar    1  UNL1        0.1564
      2 C         144.7796  131.0571  156.4299 C.ar    1  UNL1        0.0385
      3 C         145.0830  131.9103  157.6258 C.ar    1  UNL1        0.0033
      4 C         144.4746  133.2760  157.7466 C.ar    1  UNL1        0.0048
      5 C         143.5628  133.7885  156.6715 C.ar    1  UNL1        0.0567
      6 C         143.2594  132.9354  155.4756 C.ar    1  UNL1        0.1209
      7 N         142.3476  133.4480  154.4005 N.ar    1  UNL1       -0.2108
      8 C         141.7392  134.8137  154.5212 C.ar    1  UNL1        0.2163
      9 N         140.8273  135.3263  153.4461 N.pl3   1  UNL1       -0.3274
     10 N         142.0425  135.6668  155.7171 N.ar    1  UNL1       -0.1813
     11 N         141.5933  137.0436  156.1078 N.ar    1  UNL1       -0.1451
     12 C         142.2274  137.3819  157.4244 C.ar    1  UNL1        0.1769
     13 N         143.0686  136.2142  157.8474 N.ar    1  UNL1       -0.2086
     14 C         142.9543  135.1543  156.7922 C.ar    1  UNL1        0.1695
     15 H         140.6282  134.7664  152.6612 H       1  UNL1        0.1452
     16 H         140.4280  136.2227  153.5254 H       1  UNL1        0.1452
     17 C         144.5670  129.7068  153.6842 C.3     1  UNL1        0.2525
     18 O         143.5645  130.7165  154.1589 O.3     1  UNL1       -0.4699
     19 C         142.0513  138.6630  158.1846 C.3     1  UNL1        0.1408
     20 N         141.3813  138.6527  159.5267 N.3     1  UNL1       -0.2644
     21 C         139.8892  138.5295  159.6191 C.3     1  UNL1        0.0941
     22 C         139.2192  138.5192  160.9611 C.3     1  UNL1        0.1081
     23 N         140.0413  138.6320  162.2107 N.pl3   1  UNL1       -0.3047
     24 C         141.5334  138.7552  162.1182 C.3     1  UNL1        0.1067
     25 C         142.2034  138.7655  160.7762 C.3     1  UNL1        0.0777
     26 C         143.6954  138.8886  160.6837 C.3     1  UNL1        0.0192
     27 C         139.3714  138.6217  163.5527 C.ar    1  UNL1        0.0481
     28 C         138.8203  139.8938  164.1257 C.ar    1  UNL1        0.0168
     29 C         138.1503  139.8835  165.4677 C.ar    1  UNL1        0.0309
     30 C         138.0314  138.6011  166.2368 C.ar    1  UNL1        0.1402
     31 F         137.3614  138.5908  167.5788 F       1  UNL1       -0.2042
     32 C         138.5824  137.3291  165.6638 C.ar    1  UNL1        0.0309
     33 C         139.2524  137.3394  164.3218 C.ar    1  UNL1        0.0168
@<TRIPOS>BOND
     1    17    18    1
     2    18     1    1
     3     1     2   ar
     4     2     3   ar
     5     3     4   ar
     6     4     5   ar
     7     5     6   ar
     8     6     7   ar
     9     7     8   ar
    10     8     9    1
    11     8    10   ar
    12    10    11   ar
    13    11    12   ar
    14    12    19    1
    15    19    20    1
    16    20    21    1
    17    21    22    1
    18    22    23    1
    19    23    27    1
    20    27    28   ar
    21    28    29   ar
    22    29    30   ar
    23    30    31    1
    24    30    32   ar
    25    32    33   ar
    26    23    24    1
    27    24    25    1
    28    25    26    1
    29    12    13   ar
    30    13    14   ar
    31     6     1   ar
    32    14    10   ar
    33    14     5   ar
    34    25    20    1
    35    33    27   ar
    36     9    15    1
    37     9    16    1
@<TRIPOS>MOLECULE
*****
 33 37 0 0 0
SMALL
GASTEIGER

@<TRIPOS>ATOM
      1 C         138.5488  139.4610  164.3990 C.ar    1  UNL1        0.1564
      2 C         139.0072  138.0485  164.1874 C.ar    1  UNL1        0.0385
      3 C         139.4124  137.5887  162.8184 C.ar    1  UNL1        0.0033
      4 C         139.3592  138.5412  161.6609 C.ar    1  UNL1        0.0048
      5 C         138.9009  139.9537  161.8725 C.ar    1  UNL1        0.0567
      6 C         138.4957  140.4136  163.2416 C.ar    1  UNL1        0.1209
      7 N         138.0373  141.8261  163.4532 N.ar    1  UNL1       -0.2108
      8 C         137.9841  142.7787  162.2957 C.ar    1  UNL1        0.2163
      9 N         137.5257  144.1912  162.5073 N.pl3   1  UNL1       -0.3274
     10 N         138.3893  142.3188  160.9267 N.ar    1  UNL1       -0.1813
     11 N         138.4410  143.0258  159.6048 N.ar    1  UNL1       -0.1451
     12 C         138.9313  142.0503  158.5762 C.ar    1  UNL1        0.1769
     13 N         139.1826  140.7404  159.2624 N.ar    1  UNL1       -0.2086
     14 C         138.8477  140.9064  160.7151 C.ar    1  UNL1        0.1695
     15 H         137.2598  144.4931  163.4059 H       1  UNL1        0.1452
     16 H         137.4909  144.8164  161.7476 H       1  UNL1        0.1452
     17 C         139.1397  139.9065  166.8895 C.3     1  UNL1        0.2525
     18 O         138.1436  139.9209  165.7681 O.3     1  UNL1       -0.4699
     19 C         139.1345  142.3348  157.1175 C.3     1  UNL1        0.1408
     20 N         139.1841  143.7524  156.6296 N.3     1  UNL1       -0.2644
     21 C         140.3160  144.6474  157.0393 C.3     1  UNL1        0.0941
     22 C         140.3656  146.0650  156.5514 C.3     1  UNL1        0.1081
     23 N         139.2833  146.5875  155.6538 N.pl3   1  UNL1       -0.3047
     24 C         138.1515  145.6925  155.2442 C.3     1  UNL1        0.1067
     25 C         138.1019  144.2749  155.7320 C.3     1  UNL1        0.0777
     26 C         136.9700  143.3799  155.3224 C.3     1  UNL1        0.0192
     27 C         139.3329  148.0051  155.1660 C.ar    1  UNL1        0.0481
     28 C         138.6156  149.0840  155.9221 C.ar    1  UNL1        0.0168
     29 C         138.6652  150.5016  155.4342 C.ar    1  UNL1        0.0309
     30 C         139.4320  150.8402  154.1902 C.ar    1  UNL1        0.1402
     31 F         139.4816  152.2578  153.7024 F       1  UNL1       -0.2042
     32 C         140.1492  149.7614  153.4342 C.ar    1  UNL1        0.0309
     33 C         140.0996  148.3438  153.9221 C.ar    1  UNL1        0.0168
@<TRIPOS>BOND
     1    17    18    1
     2    18     1    1
     3     1     2   ar
     4     2     3   ar
     5     3     4   ar
     6     4     5   ar
     7     5     6   ar
     8     6     7   ar
     9     7     8   ar
    10     8     9    1
    11     8    10   ar
    12    10    11   ar
    13    11    12   ar
    14    12    19    1
    15    19    20    1
    16    20    21    1
    17    21    22    1
    18    22    23    1
    19    23    27    1
    20    27    28   ar
    21    28    29   ar
    22    29    30   ar
    23    30    31    1
    24    30    32   ar
    25    32    33   ar
    26    23    24    1
    27    24    25    1
    28    25    26    1
    29    12    13   ar
    30    13    14   ar
    31     6     1   ar
    32    14    10   ar
    33    14     5   ar
    34    25    20    1
    35    33    27   ar
    36     9    15    1
    37     9    16    1
@<TRIPOS>MOLECULE
*****
 33 37 0 0 0
SMALL
GASTEIGER

@<TRIPOS>ATOM
      1 C         142.8921  131.9186  153.5723 C.ar    1  UNL1        0.1564
      2 C         142.0967  132.2922  152.3567 C.ar    1  UNL1        0.0385
      3 C         141.4323  133.6348  152.2786 C.ar    1  UNL1        0.0033
      4 C         141.5632  134.6037  153.4161 C.ar    1  UNL1        0.0048
      5 C         142.3586  134.2301  154.6317 C.ar    1  UNL1        0.0567
      6 C         143.0230  132.8875  154.7098 C.ar    1  UNL1        0.1209
      7 N         143.8185  132.5139  155.9255 N.ar    1  UNL1       -0.2108
      8 C         143.9494  133.4829  157.0630 C.ar    1  UNL1        0.2163
      9 N         144.7449  133.1093  158.2786 N.pl3   1  UNL1       -0.3274
     10 N         143.2850  134.8254  156.9849 N.ar    1  UNL1       -0.1813
     11 N         143.2379  135.9792  157.9423 N.ar    1  UNL1       -0.1451
     12 C         142.4134  137.0659  157.3183 C.ar    1  UNL1        0.1769
     13 N         141.9509  136.5837  155.9753 N.ar    1  UNL1       -0.2086
     14 C         142.4896  135.1991  155.7693 C.ar    1  UNL1        0.1695
     15 H         145.1809  132.2281  158.3299 H       1  UNL1        0.1452
     16 H         144.8308  133.7452  159.0252 H       1  UNL1        0.1452
     17 C         142.7242  129.3292  153.7021 C.3     1  UNL1        0.2525
     18 O         143.5565  130.5761  153.6504 O.3     1  UNL1       -0.4699
     19 C         142.1054  138.4005  157.9300 C.3     1  UNL1        0.1408
     20 N         141.4406  138.4747  159.2726 N.3     1  UNL1       -0.2644
     21 C         139.9444  138.4363  159.3718 C.3     1  UNL1        0.0941
     22 C         139.2796  138.5104  160.7144 C.3     1  UNL1        0.1081
     23 N         140.1111  138.6231  161.9578 N.pl3   1  UNL1       -0.3047
     24 C         141.6073  138.6615  161.8586 C.3     1  UNL1        0.1067
     25 C         142.2720  138.5873  160.5160 C.3     1  UNL1        0.0777
     26 C         143.7682  138.6257  160.4168 C.3     1  UNL1        0.0192
     27 C         139.4463  138.6973  163.3004 C.ar    1  UNL1        0.0481
     28 C         139.3941  137.4830  164.1796 C.ar    1  UNL1        0.0168
     29 C         138.7293  137.5572  165.5221 C.ar    1  UNL1        0.0309
     30 C         138.1167  138.8456  165.9856 C.ar    1  UNL1        0.1402
     31 F         137.4519  138.9198  167.3281 F       1  UNL1       -0.2042
     32 C         138.1689  140.0598  165.1064 C.ar    1  UNL1        0.0309
     33 C         138.8337  139.9856  163.7638 C.ar    1  UNL1        0.0168
@<TRIPOS>BOND
     1    17    18    1
     2    18     1    1
     3     1     2   ar
     4     2     3   ar
     5     3     4   ar
     6     4     5   ar
     7     5     6   ar
     8     6     7   ar
     9     7     8   ar
    10     8     9    1
    11     8    10   ar
    12    10    11   ar
    13    11    12   ar
    14    12    19    1
    15    19    20    1
    16    20    21    1
    17    21    22    1
    18    22    23    1
    19    23    27    1
    20    27    28   ar
    21    28    29   ar
    22    29    30   ar
    23    30    31    1
    24    30    32   ar
    25    32    33   ar
    26    23    24    1
    27    24    25    1
    28    25    26    1
    29    12    13   ar
    30    13    14   ar
    31     6     1   ar
    32    14    10   ar
    33    14     5   ar
    34    25    20    1
    35    33    27   ar
    36     9    15    1
    37     9    16    1
@<TRIPOS>MOLECULE
*****
 33 37 0 0 0
SMALL
GASTEIGER

@<TRIPOS>ATOM
      1 C         139.9982  146.6015  156.2250 C.ar    1  UNL1        0.1564
      2 C         140.7204  146.2531  154.9573 C.ar    1  UNL1        0.0385
      3 C         141.8834  145.3065  154.9926 C.ar    1  UNL1        0.0033
      4 C         142.3242  144.7082  156.2955 C.ar    1  UNL1        0.0048
      5 C         141.6020  145.0566  157.5632 C.ar    1  UNL1        0.0567
      6 C         140.4390  146.0032  157.5279 C.ar    1  UNL1        0.1209
      7 N         139.7168  146.3516  158.7957 N.ar    1  UNL1       -0.2108
      8 C         140.1576  145.7533  160.0986 C.ar    1  UNL1        0.2163
      9 N         139.4354  146.1017  161.3664 N.pl3   1  UNL1       -0.3274
     10 N         141.3206  144.8067  160.1339 N.ar    1  UNL1       -0.1813
     11 N         141.9781  144.0660  161.2604 N.ar    1  UNL1       -0.1451
     12 C         143.1066  143.2599  160.6890 C.ar    1  UNL1        0.1769
     13 N         143.1466  143.5023  159.2093 N.ar    1  UNL1       -0.2086
     14 C         142.0428  144.4583  158.8662 C.ar    1  UNL1        0.1695
     15 H         138.6721  146.7230  161.3432 H       1  UNL1        0.1452
     16 H         139.7247  145.7090  162.2215 H       1  UNL1        0.1452
     17 C         138.9056  148.7919  155.3542 C.3     1  UNL1        0.2525
     18 O         138.8352  147.5482  156.1897 O.3     1  UNL1       -0.4699
     19 C         144.0326  142.3678  161.4617 C.3     1  UNL1        0.1408
     20 N         143.7723  142.0938  162.9133 N.3     1  UNL1       -0.2644
     21 C         144.3875  142.9699  163.9640 C.3     1  UNL1        0.0941
     22 C         144.1272  142.6958  165.4156 C.3     1  UNL1        0.1081
     23 N         143.2517  141.5456  165.8164 N.pl3   1  UNL1       -0.3047
     24 C         142.6365  140.6696  164.7657 C.3     1  UNL1        0.1067
     25 C         142.8969  140.9436  163.3141 C.3     1  UNL1        0.0777
     26 C         142.2817  140.0676  162.2634 C.3     1  UNL1        0.0192
     27 C         142.9914  141.2715  167.2680 C.ar    1  UNL1        0.0481
     28 C         143.1062  142.3794  168.2728 C.ar    1  UNL1        0.0168
     29 C         142.8459  142.1053  169.7244 C.ar    1  UNL1        0.0309
     30 C         142.4707  140.7234  170.1712 C.ar    1  UNL1        0.1402
     31 F         142.2104  140.4493  171.6228 F       1  UNL1       -0.2042
     32 C         142.3559  139.6156  169.1665 C.ar    1  UNL1        0.0309
     33 C         142.6162  139.8897  167.7149 C.ar    1  UNL1        0.0168
@<TRIPOS>BOND
     1    17    18    1
     2    18     1    1
     3     1     2   ar
     4     2     3   ar
     5     3     4   ar
     6     4     5   ar
     7     5     6   ar
     8     6     7   ar
     9     7     8   ar
    10     8     9    1
    11     8    10   ar
    12    10    11   ar
    13    11    12   ar
    14    12    19    1
    15    19    20    1
    16    20    21    1
    17    21    22    1
    18    22    23    1
    19    23    27    1
    20    27    28   ar
    21    28    29   ar
    22    29    30   ar
    23    30    31    1
    24    30    32   ar
    25    32    33   ar
    26    23    24    1
    27    24    25    1
    28    25    26    1
    29    12    13   ar
    30    13    14   ar
    31     6     1   ar
    32    14    10   ar
    33    14     5   ar
    34    25    20    1
    35    33    27   ar
    36     9    15    1
    37     9    16    1
@<TRIPOS>MOLECULE
*****
 33 37 0 0 0
SMALL
GASTEIGER

@<TRIPOS>ATOM
      1 C         140.2403  139.0155  164.9063 C.ar    1  UNL1        0.1564
      2 C         141.6279  138.7330  165.4011 C.ar    1  UNL1        0.0385
      3 C         142.7225  138.4182  164.4251 C.ar    1  UNL1        0.0033
      4 C         142.4296  138.3858  162.9543 C.ar    1  UNL1        0.0048
      5 C         141.0421  138.6683  162.4596 C.ar    1  UNL1        0.0567
      6 C         139.9474  138.9831  163.4356 C.ar    1  UNL1        0.1209
      7 N         138.5597  139.2656  162.9408 N.ar    1  UNL1       -0.2108
      8 C         138.2668  139.2332  161.4701 C.ar    1  UNL1        0.2163
      9 N         136.8792  139.5157  160.9753 N.pl3   1  UNL1       -0.3274
     10 N         139.3615  138.9184  160.4941 N.ar    1  UNL1       -0.1813
     11 N         139.3730  138.8150  158.9977 N.ar    1  UNL1       -0.1451
     12 C         140.7676  138.4687  158.5676 C.ar    1  UNL1        0.1769
     13 N         141.6181  138.3580  159.7982 N.ar    1  UNL1       -0.2086
     14 C         140.7491  138.6359  160.9888 C.ar    1  UNL1        0.1695
     15 H         136.1607  139.7223  161.6158 H       1  UNL1        0.1452
     16 H         136.6870  139.4944  160.0100 H       1  UNL1        0.1452
     17 C         138.1606  138.2686  166.2727 C.3     1  UNL1        0.2525
     18 O         139.1456  139.3303  165.8823 O.3     1  UNL1       -0.4699
     19 C         141.2305  138.2682  157.1549 C.3     1  UNL1        0.1408
     20 N         141.7568  136.9324  156.7206 N.3     1  UNL1       -0.2644
     21 C         143.0216  136.3934  157.3205 C.3     1  UNL1        0.0941
     22 C         143.5479  135.0576  156.8862 C.3     1  UNL1        0.1081
     23 N         142.8093  134.2608  155.8519 N.pl3   1  UNL1       -0.3047
     24 C         141.5446  134.7997  155.2520 C.3     1  UNL1        0.1067
     25 C         141.0183  136.1355  155.6864 C.3     1  UNL1        0.0777
     26 C         139.7536  136.6745  155.0865 C.3     1  UNL1        0.0192
     27 C         143.3356  132.9250  155.4176 C.ar    1  UNL1        0.0481
     28 C         144.3538  132.2111  156.2566 C.ar    1  UNL1        0.0168
     29 C         144.8800  130.8753  155.8222 C.ar    1  UNL1        0.0309
     30 C         144.3882  130.2533  154.5489 C.ar    1  UNL1        0.1402
     31 F         144.9144  128.9175  154.1145 F       1  UNL1       -0.2042
     32 C         143.3700  130.9672  153.7100 C.ar    1  UNL1        0.0309
     33 C         142.8438  132.3030  154.1443 C.ar    1  UNL1        0.0168
@<TRIPOS>BOND
     1    17    18    1
     2    18     1    1
     3     1     2   ar
     4     2     3   ar
     5     3     4   ar
     6     4     5   ar
     7     5     6   ar
     8     6     7   ar
     9     7     8   ar
    10     8     9    1
    11     8    10   ar
    12    10    11   ar
    13    11    12   ar
    14    12    19    1
    15    19    20    1
    16    20    21    1
    17    21    22    1
    18    22    23    1
    19    23    27    1
    20    27    28   ar
    21    28    29   ar
    22    29    30   ar
    23    30    31    1
    24    30    32   ar
    25    32    33   ar
    26    23    24    1
    27    24    25    1
    28    25    26    1
    29    12    13   ar
    30    13    14   ar
    31     6     1   ar
    32    14    10   ar
    33    14     5   ar
    34    25    20    1
    35    33    27   ar
    36     9    15    1
    37     9    16    1
@<TRIPOS>MOLECULE
*****
 33 37 0 0 0
SMALL
GASTEIGER

@<TRIPOS>ATOM
      1 C         140.0165  144.7771  157.3095 C.ar    1  UNL1        0.1564
      2 C         140.9281  145.5782  158.1910 C.ar    1  UNL1        0.0385
      3 C         141.2171  145.1161  159.5884 C.ar    1  UNL1        0.0033
      4 C         140.5945  143.8528  160.1044 C.ar    1  UNL1        0.0048
      5 C         139.6828  143.0516  159.2230 C.ar    1  UNL1        0.0567
      6 C         139.3938  143.5138  157.8255 C.ar    1  UNL1        0.1209
      7 N         138.4822  142.7125  156.9440 N.ar    1  UNL1       -0.2108
      8 C         137.8595  141.4492  157.4600 C.ar    1  UNL1        0.2163
      9 N         136.9478  140.6480  156.5785 N.pl3   1  UNL1       -0.3274
     10 N         138.1485  140.9871  158.8575 N.ar    1  UNL1       -0.1813
     11 N         137.6836  139.7920  159.6357 N.ar    1  UNL1       -0.1451
     12 C         138.3079  139.8546  160.9982 C.ar    1  UNL1        0.1769
     13 N         139.1586  141.0884  161.0620 N.ar    1  UNL1       -0.2086
     14 C         139.0601  141.7882  159.7389 C.ar    1  UNL1        0.1695
     15 H         136.7582  140.9513  155.6613 H       1  UNL1        0.1452
     16 H         136.5392  139.8188  156.9172 H       1  UNL1        0.1452
     17 C         138.8576  146.4397  155.6839 C.3     1  UNL1        0.2525
     18 O         139.7275  145.2392  155.9120 O.3     1  UNL1       -0.4699
     19 C         138.1152  138.8584  162.1030 C.3     1  UNL1        0.1408
     20 N         138.7119  139.1135  163.4554 N.3     1  UNL1       -0.2644
     21 C         138.0996  140.1379  164.3641 C.3     1  UNL1        0.0941
     22 C         138.6963  140.3930  165.7165 C.3     1  UNL1        0.1081
     23 N         139.9052  139.6237  166.1601 N.pl3   1  UNL1       -0.3047
     24 C         140.5174  138.5994  165.2514 C.3     1  UNL1        0.1067
     25 C         139.9208  138.3443  163.8990 C.3     1  UNL1        0.0777
     26 C         140.5330  137.3199  162.9902 C.3     1  UNL1        0.0192
     27 C         140.5019  139.8788  167.5125 C.ar    1  UNL1        0.0481
     28 C         141.9866  139.7880  167.7064 C.ar    1  UNL1        0.0168
     29 C         142.5832  140.0431  169.0588 C.ar    1  UNL1        0.0309
     30 C         141.6952  140.3890  170.2172 C.ar    1  UNL1        0.1402
     31 F         142.2919  140.6441  171.5696 F       1  UNL1       -0.2042
     32 C         140.2106  140.4798  170.0232 C.ar    1  UNL1        0.0309
     33 C         139.6140  140.2247  168.6709 C.ar    1  UNL1        0.0168
@<TRIPOS>BOND
     1    17    18    1
     2    18     1    1
     3     1     2   ar
     4     2     3   ar
     5     3     4   ar
     6     4     5   ar
     7     5     6   ar
     8     6     7   ar
     9     7     8   ar
    10     8     9    1
    11     8    10   ar
    12    10    11   ar
    13    11    12   ar
    14    12    19    1
    15    19    20    1
    16    20    21    1
    17    21    22    1
    18    22    23    1
    19    23    27    1
    20    27    28   ar
    21    28    29   ar
    22    29    30   ar
    23    30    31    1
    24    30    32   ar
    25    32    33   ar
    26    23    24    1
    27    24    25    1
    28    25    26    1
    29    12    13   ar
    30    13    14   ar
    31     6     1   ar
    32    14    10   ar
    33    14     5   ar
    34    25    20    1
    35    33    27   ar
    36     9    15    1
    37     9    16    1
@<TRIPOS>MOLECULE
*****
 33 37 0 0 0
SMALL
GASTEIGER

@<TRIPOS>ATOM
      1 C         139.8645  136.8795  155.9019 C.ar    1  UNL1        0.1564
      2 C         140.8901  136.0952  155.1385 C.ar    1  UNL1        0.0385
      3 C         142.3208  136.0930  155.5892 C.ar    1  UNL1        0.0033
      4 C         142.7259  136.8752  156.8033 C.ar    1  UNL1        0.0048
      5 C         141.7002  137.6595  157.5667 C.ar    1  UNL1        0.0567
      6 C         140.2696  137.6617  157.1160 C.ar    1  UNL1        0.1209
      7 N         139.2439  138.4462  157.8795 N.ar    1  UNL1       -0.2108
      8 C         139.6490  139.2283  159.0936 C.ar    1  UNL1        0.2163
      9 N         138.6234  140.0128  159.8571 N.pl3   1  UNL1       -0.3274
     10 N         141.0797  139.2262  159.5443 N.ar    1  UNL1       -0.1813
     11 N         141.7708  139.8968  160.6943 N.ar    1  UNL1       -0.1451
     12 C         143.2235  139.5270  160.6416 C.ar    1  UNL1        0.1769
     13 N         143.4303  138.6277  159.4590 N.ar    1  UNL1       -0.2086
     14 C         142.1053  138.4418  158.7808 C.ar    1  UNL1        0.1695
     15 H         137.6844  140.0142  159.5613 H       1  UNL1        0.1452
     16 H         138.8893  140.5262  160.6539 H       1  UNL1        0.1452
     17 C         138.0381  137.6329  154.2147 C.3     1  UNL1        0.2525
     18 O         138.4338  136.8817  155.4513 O.3     1  UNL1       -0.4699
     19 C         144.2835  139.9773  161.6028 C.3     1  UNL1        0.1408
     20 N         143.9411  140.2010  163.0459 N.3     1  UNL1       -0.2644
     21 C         143.5732  139.0376  163.9185 C.3     1  UNL1        0.0941
     22 C         143.2308  139.2613  165.3617 C.3     1  UNL1        0.1081
     23 N         143.2564  140.6484  165.9323 N.pl3   1  UNL1       -0.3047
     24 C         143.6243  141.8116  165.0597 C.3     1  UNL1        0.1067
     25 C         143.9667  141.5879  163.6166 C.3     1  UNL1        0.0777
     26 C         144.3346  142.7512  162.7440 C.3     1  UNL1        0.0192
     27 C         142.9140  140.8721  167.3755 C.ar    1  UNL1        0.0481
     28 C         142.9326  142.2600  167.9443 C.ar    1  UNL1        0.0168
     29 C         142.5902  142.4836  169.3875 C.ar    1  UNL1        0.0309
     30 C         142.2293  141.3194  170.2618 C.ar    1  UNL1        0.1402
     31 F         141.8870  141.5431  171.7050 F       1  UNL1       -0.2042
     32 C         142.2108  139.9316  169.6930 C.ar    1  UNL1        0.0309
     33 C         142.5531  139.7079  168.2498 C.ar    1  UNL1        0.0168
@<TRIPOS>BOND
     1    17    18    1
     2    18     1    1
     3     1     2   ar
     4     2     3   ar
     5     3     4   ar
     6     4     5   ar
     7     5     6   ar
     8     6     7   ar
     9     7     8   ar
    10     8     9    1
    11     8    10   ar
    12    10    11   ar
    13    11    12   ar
    14    12    19    1
    15    19    20    1
    16    20    21    1
    17    21    22    1
    18    22    23    1
    19    23    27    1
    20    27    28   ar
    21    28    29   ar
    22    29    30   ar
    23    30    31    1
    24    30    32   ar
    25    32    33   ar
    26    23    24    1
    27    24    25    1
    28    25    26    1
    29    12    13   ar
    30    13    14   ar
    31     6     1   ar
    32    14    10   ar
    33    14     5   ar
    34    25    20    1
    35    33    27   ar
    36     9    15    1
    37     9    16    1
@<TRIPOS>MOLECULE
*****
 33 37 0 0 0
SMALL
GASTEIGER

@<TRIPOS>ATOM
      1 C         143.9324  130.2947  155.3387 C.ar    1  UNL1        0.1564
      2 C         144.5613  129.7961  156.6059 C.ar    1  UNL1        0.0385
      3 C         144.7724  130.7334  157.7577 C.ar    1  UNL1        0.0033
      4 C         144.3546  132.1694  157.6423 C.ar    1  UNL1        0.0048
      5 C         143.7257  132.6680  156.3751 C.ar    1  UNL1        0.0567
      6 C         143.5146  131.7306  155.2233 C.ar    1  UNL1        0.1209
      7 N         142.8857  132.2293  153.9560 N.ar    1  UNL1       -0.2108
      8 C         142.4679  133.6653  153.8407 C.ar    1  UNL1        0.2163
      9 N         141.8390  134.1640  152.5734 N.pl3   1  UNL1       -0.3274
     10 N         142.6791  134.6027  154.9925 N.ar    1  UNL1       -0.1813
     11 N         142.3713  136.0600  155.1700 N.ar    1  UNL1       -0.1451
     12 C         142.8099  136.4620  156.5469 C.ar    1  UNL1        0.1769
     13 N         143.3888  135.2532  157.2204 N.ar    1  UNL1       -0.2086
     14 C         143.3079  134.1041  156.2597 C.ar    1  UNL1        0.1695
     15 H         141.7005  133.5488  151.8174 H       1  UNL1        0.1452
     16 H         141.5648  135.1065  152.4977 H       1  UNL1        0.1452
     17 C         142.5172  128.4632  154.1584 C.3     1  UNL1        0.2525
     18 O         143.7213  129.3573  154.1868 O.3     1  UNL1       -0.4699
     19 C         142.6906  137.8323  157.1454 C.3     1  UNL1        0.1408
     20 N         141.9793  138.0205  158.4525 N.3     1  UNL1       -0.2644
     21 C         142.7129  137.8058  159.7432 C.3     1  UNL1        0.0941
     22 C         142.0016  137.9940  161.0504 C.3     1  UNL1        0.1081
     23 N         140.5568  138.3969  161.0669 N.pl3   1  UNL1       -0.3047
     24 C         139.8233  138.6116  159.7762 C.3     1  UNL1        0.1067
     25 C         140.5346  138.4234  158.4690 C.3     1  UNL1        0.0777
     26 C         139.8011  138.6381  157.1784 C.3     1  UNL1        0.0192
     27 C         139.8455  138.5851  162.3740 C.ar    1  UNL1        0.0481
     28 C         139.1164  139.8659  162.6535 C.ar    1  UNL1        0.0168
     29 C         138.4051  140.0541  163.9607 C.ar    1  UNL1        0.0309
     30 C         138.4230  138.9615  164.9883 C.ar    1  UNL1        0.1402
     31 F         137.7117  139.1497  166.2955 F       1  UNL1       -0.2042
     32 C         139.1521  137.6808  164.7088 C.ar    1  UNL1        0.0309
     33 C         139.8633  137.4926  163.4017 C.ar    1  UNL1        0.0168
@<TRIPOS>BOND
     1    17    18    1
     2    18     1    1
     3     1     2   ar
     4     2     3   ar
     5     3     4   ar
     6     4     5   ar
     7     5     6   ar
     8     6     7   ar
     9     7     8   ar
    10     8     9    1
    11     8    10   ar
    12    10    11   ar
    13    11    12   ar
    14    12    19    1
    15    19    20    1
    16    20    21    1
    17    21    22    1
    18    22    23    1
    19    23    27    1
    20    27    28   ar
    21    28    29   ar
    22    29    30   ar
    23    30    31    1
    24    30    32   ar
    25    32    33   ar
    26    23    24    1
    27    24    25    1
    28    25    26    1
    29    12    13   ar
    30    13    14   ar
    31     6     1   ar
    32    14    10   ar
    33    14     5   ar
    34    25    20    1
    35    33    27   ar
    36     9    15    1
    37     9    16    1
@<TRIPOS>MOLECULE
*****
 33 37 0 0 0
SMALL
GASTEIGER

@<TRIPOS>ATOM
      1 C         139.3971  139.8171  167.8764 C.ar    1  UNL1        0.1564
      2 C         138.3107  139.2110  167.0385 C.ar    1  UNL1        0.0385
      3 C         138.2911  139.4394  165.5561 C.ar    1  UNL1        0.0033
      4 C         139.3579  140.2741  164.9117 C.ar    1  UNL1        0.0048
      5 C         140.4443  140.8802  165.7497 C.ar    1  UNL1        0.0567
      6 C         140.4639  140.6518  167.2320 C.ar    1  UNL1        0.1209
      7 N         141.5504  141.2580  168.0700 N.ar    1  UNL1       -0.2108
      8 C         142.6172  142.0926  167.4256 C.ar    1  UNL1        0.2163
      9 N         143.7036  142.6988  168.2636 N.pl3   1  UNL1       -0.3274
     10 N         142.5976  142.3211  165.9432 N.ar    1  UNL1       -0.1813
     11 N         143.5083  143.0921  165.0344 N.ar    1  UNL1       -0.1451
     12 C         142.9847  142.9625  163.6347 C.ar    1  UNL1        0.1769
     13 N         141.7504  142.1113  163.6786 N.ar    1  UNL1       -0.2086
     14 C         141.5112  141.7149  165.1053 C.ar    1  UNL1        0.1695
     15 H         143.7165  142.5489  169.2365 H       1  UNL1        0.1452
     16 H         144.4038  143.2466  167.8406 H       1  UNL1        0.1452
     17 C         138.8787  140.6375  170.2865 C.3     1  UNL1        0.2525
     18 O         139.4167  139.5887  169.3588 O.3     1  UNL1       -0.4699
     19 C         143.5894  143.5763  162.4068 C.3     1  UNL1        0.1408
     20 N         142.7193  143.9211  161.2346 N.3     1  UNL1       -0.2644
     21 C         141.5568  144.8524  161.4117 C.3     1  UNL1        0.0941
     22 C         140.6867  145.1972  160.2395 C.3     1  UNL1        0.1081
     23 N         140.9791  144.6107  158.8902 N.pl3   1  UNL1       -0.3047
     24 C         142.1416  143.6794  158.7131 C.3     1  UNL1        0.1067
     25 C         143.0117  143.3346  159.8853 C.3     1  UNL1        0.0777
     26 C         144.1741  142.4033  159.7083 C.3     1  UNL1        0.0192
     27 C         140.1091  144.9555  157.7179 C.ar    1  UNL1        0.0481
     28 C         139.3115  143.8841  157.0351 C.ar    1  UNL1        0.0168
     29 C         138.4414  144.2289  155.8629 C.ar    1  UNL1        0.0309
     30 C         138.3689  145.6451  155.3735 C.ar    1  UNL1        0.1402
     31 F         137.4988  145.9899  154.2013 F       1  UNL1       -0.2042
     32 C         139.1665  146.7163  156.0564 C.ar    1  UNL1        0.0309
     33 C         140.0365  146.3715  157.2286 C.ar    1  UNL1        0.0168
@<TRIPOS>BOND
     1    17    18    1
     2    18     1    1
     3     1     2   ar
     4     2     3   ar
     5     3     4   ar
     6     4     5   ar
     7     5     6   ar
     8     6     7   ar
     9     7     8   ar
    10     8     9    1
    11     8    10   ar
    12    10    11   ar
    13    11    12   ar
    14    12    19    1
    15    19    20    1
    16    20    21    1
    17    21    22    1
    18    22    23    1
    19    23    27    1
    20    27    28   ar
    21    28    29   ar
    22    29    30   ar
    23    30    31    1
    24    30    32   ar
    25    32    33   ar
    26    23    24    1
    27    24    25    1
    28    25    26    1
    29    12    13   ar
    30    13    14   ar
    31     6     1   ar
    32    14    10   ar
    33    14     5   ar
    34    25    20    1
    35    33    27   ar
    36     9    15    1
    37     9    16    1
