@<TRIPOS>MOLECULE
*****
 32 34 0 0 0
SMALL
GASTEIGER

@<TRIPOS>ATOM
      1 C         141.1302  141.8439  167.7865 C.ar    1  UNL1        0.1368
      2 N         141.8910  140.7810  167.0508 N.ar    1  UNL1       -0.1989
      3 C         142.6644  139.7474  167.8147 C.ar    1  UNL1        0.2218
      4 N         142.6770  139.7768  169.3144 N.ar    1  UNL1       -0.2120
      5 C         141.9162  140.8397  170.0501 C.ar    1  UNL1        0.1085
      6 C         141.1428  141.8733  169.2862 C.ar    1  UNL1        0.1219
      7 C         140.3820  142.9363  170.0219 C.3     1  UNL1        0.4226
      8 F         139.6213  143.9993  170.7576 F       1  UNL1       -0.1657
      9 F         141.5668  143.8511  169.9253 F       1  UNL1       -0.1657
     10 F         139.1972  142.0216  170.1185 F       1  UNL1       -0.1657
     11 N         140.3568  142.8776  167.0226 N.pl3   1  UNL1       -0.3183
     12 H         140.1187  143.7310  167.4518 H       1  UNL1        0.1482
     13 C         140.6745  143.0670  164.3753 C.3     1  UNL1        0.0755
     14 C         139.9137  142.5793  163.1781 C.3     1  UNL1        0.0177
     15 C         138.7152  141.8217  163.6676 C.3     1  UNL1        0.0032
     16 C         138.7353  141.8412  165.1674 C.3     1  UNL1        0.0209
     17 C         139.9462  142.6109  165.6048 C.3     1  UNL1        0.0849
     18 C         143.2221  143.2674  164.8439 C.3     1  UNL1        0.0897
     19 N         141.9412  143.8699  164.3478 N.3     1  UNL1       -0.2700
     20 C         141.9271  145.2756  163.8242 C.3     1  UNL1        0.0897
     21 N         143.4252  138.6844  167.0789 N.pl3   1  UNL1       -0.2825
     22 H         144.0262  138.0795  167.5709 H       1  UNL1        0.1551
     23 C         143.2702  138.5432  165.5937 C.ar    1  UNL1        0.0505
     24 C         144.3032  139.1229  164.6733 C.ar    1  UNL1        0.0160
     25 C         144.1482  138.9817  163.1881 C.ar    1  UNL1        0.0196
     26 C         142.9603  138.2608  162.6231 C.ar    1  UNL1        0.1058
     27 C         141.9274  137.6811  163.5434 C.ar    1  UNL1        0.0196
     28 C         142.0823  137.8223  165.0287 C.ar    1  UNL1        0.0160
     29 S         142.8053  138.1196  161.1378 S.O2    1  UNL1        0.0105
     30 C         142.6503  137.9783  159.6526 C.3     1  UNL1        0.1816
     31 O         144.1987  138.6396  160.9430 O.2     1  UNL1       -0.1686
     32 O         141.4119  137.5995  161.3327 O.2     1  UNL1       -0.1686
@<TRIPOS>BOND
     1    18    19    1
     2    19    20    1
     3    13    19    1
     4    13    14    1
     5    14    15    1
     6    15    16    1
     7    16    17    1
     8    17    11    1
     9    11     1    1
    10     1     2   ar
    11     2     3   ar
    12     3    21    1
    13    21    23    1
    14    23    24   ar
    15    24    25   ar
    16    25    26   ar
    17    26    29    1
    18    29    30    1
    19    29    31    2
    20    29    32    2
    21    26    27   ar
    22    27    28   ar
    23     3     4   ar
    24     4     5   ar
    25     5     6   ar
    26     6     7    1
    27     7     8    1
    28     7     9    1
    29     7    10    1
    30    17    13    1
    31     6     1   ar
    32    28    23   ar
    33    11    12    1
    34    21    22    1
@<TRIPOS>MOLECULE
*****
 32 34 0 0 0
SMALL
GASTEIGER

@<TRIPOS>ATOM
      1 C         138.1032  140.1909  163.6523 C.ar    1  UNL1        0.1368
      2 N         138.1162  140.2176  165.1520 N.ar    1  UNL1       -0.1989
      3 C         138.4972  138.9872  165.9207 C.ar    1  UNL1        0.2218
      4 N         138.8650  137.7301  165.1897 N.ar    1  UNL1       -0.2120
      5 C         138.8520  137.7033  163.6901 C.ar    1  UNL1        0.1085
      6 C         138.4710  138.9338  162.9214 C.ar    1  UNL1        0.1219
      7 C         138.4580  138.9071  161.4216 C.3     1  UNL1        0.4226
      8 F         138.4450  138.8805  159.9219 F       1  UNL1       -0.1657
      9 F         139.8602  139.4392  161.4000 F       1  UNL1       -0.1657
     10 F         137.0557  138.3750  161.4432 F       1  UNL1       -0.1657
     11 N         137.7223  141.4213  162.8836 N.pl3   1  UNL1       -0.3183
     12 H         137.0961  141.3548  162.1267 H       1  UNL1        0.1482
     13 C         139.3755  143.4927  162.5356 C.3     1  UNL1        0.0755
     14 C         139.6367  144.7760  163.2671 C.3     1  UNL1        0.0177
     15 C         138.7179  144.8295  164.4516 C.3     1  UNL1        0.0032
     16 C         137.8889  143.5794  164.4521 C.3     1  UNL1        0.0209
     17 C         138.2954  142.7532  163.2679 C.3     1  UNL1        0.0849
     18 C         141.4252  142.3893  161.3819 C.3     1  UNL1        0.0897
     19 N         140.0723  143.0303  161.2903 N.3     1  UNL1       -0.2700
     20 C         139.4159  143.2089  159.9533 C.3     1  UNL1        0.0897
     21 N         138.5102  139.0138  167.4205 N.pl3   1  UNL1       -0.2825
     22 H         137.8896  138.4428  167.9284 H       1  UNL1        0.1551
     23 C         139.4689  139.9106  168.1463 C.ar    1  UNL1        0.0505
     24 C         140.7418  140.3429  167.4808 C.ar    1  UNL1        0.0160
     25 C         141.7004  141.2397  168.2067 C.ar    1  UNL1        0.0196
     26 C         141.3861  141.7042  169.5979 C.ar    1  UNL1        0.1058
     27 C         140.1132  141.2719  170.2633 C.ar    1  UNL1        0.0196
     28 C         139.1546  140.3751  169.5375 C.ar    1  UNL1        0.0160
     29 S         142.3447  142.6010  170.3238 S.O2    1  UNL1        0.0105
     30 C         143.3033  143.4978  171.0496 C.3     1  UNL1        0.1816
     31 O         143.1346  142.7787  169.0610 O.2     1  UNL1       -0.1686
     32 O         141.5549  142.4233  171.5865 O.2     1  UNL1       -0.1686
@<TRIPOS>BOND
     1    18    19    1
     2    19    20    1
     3    13    19    1
     4    13    14    1
     5    14    15    1
     6    15    16    1
     7    16    17    1
     8    17    11    1
     9    11     1    1
    10     1     2   ar
    11     2     3   ar
    12     3    21    1
    13    21    23    1
    14    23    24   ar
    15    24    25   ar
    16    25    26   ar
    17    26    29    1
    18    29    30    1
    19    29    31    2
    20    29    32    2
    21    26    27   ar
    22    27    28   ar
    23     3     4   ar
    24     4     5   ar
    25     5     6   ar
    26     6     7    1
    27     7     8    1
    28     7     9    1
    29     7    10    1
    30    17    13    1
    31     6     1   ar
    32    28    23   ar
    33    11    12    1
    34    21    22    1
@<TRIPOS>MOLECULE
*****
 32 34 0 0 0
SMALL
GASTEIGER

@<TRIPOS>ATOM
      1 C         141.8254  141.5502  167.7671 C.ar    1  UNL1        0.1368
      2 N         140.8212  140.7026  167.0439 N.ar    1  UNL1       -0.1989
      3 C         139.7682  139.9643  167.8158 C.ar    1  UNL1        0.2218
      4 N         139.7194  140.0735  169.3110 N.ar    1  UNL1       -0.2120
      5 C         140.7236  140.9211  170.0343 C.ar    1  UNL1        0.1085
      6 C         141.7766  141.6594  169.2623 C.ar    1  UNL1        0.1219
      7 C         142.7809  142.5071  169.9856 C.3     1  UNL1        0.4226
      8 F         143.7850  143.3547  170.7088 F       1  UNL1       -0.1657
      9 F         141.8266  143.6640  169.9546 F       1  UNL1       -0.1657
     10 F         143.7351  141.3502  170.0166 F       1  UNL1       -0.1657
     11 N         142.8785  142.2886  166.9952 N.pl3   1  UNL1       -0.3183
     12 H         143.3975  143.0032  167.4302 H       1  UNL1        0.1482
     13 C         142.6001  142.6622  164.3630 C.3     1  UNL1        0.0755
     14 C         143.1149  141.9738  163.1337 C.3     1  UNL1        0.0177
     15 C         143.9736  140.8244  163.5714 C.3     1  UNL1        0.0032
     16 C         143.9896  140.8025  165.0711 C.3     1  UNL1        0.0209
     17 C         143.1407  141.9383  165.5604 C.3     1  UNL1        0.0849
     18 C         142.2048  145.1867  163.8934 C.3     1  UNL1        0.0897
     19 N         141.7024  143.8636  164.3901 N.3     1  UNL1       -0.2700
     20 C         140.3020  143.7418  164.9141 C.3     1  UNL1        0.0897
     21 N         138.7639  139.1166  167.0926 N.pl3   1  UNL1       -0.2825
     22 H         138.2269  138.4579  167.5894 H       1  UNL1        0.1551
     23 C         138.5780  139.2727  165.6123 C.ar    1  UNL1        0.0505
     24 C         138.8952  138.1313  164.6921 C.ar    1  UNL1        0.0160
     25 C         138.7093  138.2874  163.2119 C.ar    1  UNL1        0.0196
     26 C         138.2062  139.5849  162.6519 C.ar    1  UNL1        0.1058
     27 C         137.8890  140.7262  163.5721 C.ar    1  UNL1        0.0196
     28 C         138.0749  140.5701  165.0523 C.ar    1  UNL1        0.0160
     29 S         138.0202  139.7410  161.1717 S.O2    1  UNL1        0.0105
     30 C         137.8343  139.8970  159.6914 C.3     1  UNL1        0.1816
     31 O         138.6813  138.4131  160.9486 O.2     1  UNL1       -0.1686
     32 O         137.3591  141.0688  161.3947 O.2     1  UNL1       -0.1686
@<TRIPOS>BOND
     1    18    19    1
     2    19    20    1
     3    13    19    1
     4    13    14    1
     5    14    15    1
     6    15    16    1
     7    16    17    1
     8    17    11    1
     9    11     1    1
    10     1     2   ar
    11     2     3   ar
    12     3    21    1
    13    21    23    1
    14    23    24   ar
    15    24    25   ar
    16    25    26   ar
    17    26    29    1
    18    29    30    1
    19    29    31    2
    20    29    32    2
    21    26    27   ar
    22    27    28   ar
    23     3     4   ar
    24     4     5   ar
    25     5     6   ar
    26     6     7    1
    27     7     8    1
    28     7     9    1
    29     7    10    1
    30    17    13    1
    31     6     1   ar
    32    28    23   ar
    33    11    12    1
    34    21    22    1
@<TRIPOS>MOLECULE
*****
 32 34 0 0 0
SMALL
GASTEIGER

@<TRIPOS>ATOM
      1 C         139.3747  140.2288  166.9691 C.ar    1  UNL1        0.1368
      2 N         139.7996  141.6298  166.6426 N.ar    1  UNL1       -0.1989
      3 C         139.3530  142.2696  165.3615 C.ar    1  UNL1        0.2218
      4 N         138.4816  141.5084  164.4070 N.ar    1  UNL1       -0.2120
      5 C         138.0567  140.1074  164.7335 C.ar    1  UNL1        0.1085
      6 C         138.5033  139.4676  166.0146 C.ar    1  UNL1        0.1219
      7 C         138.0784  138.0665  166.3411 C.3     1  UNL1        0.4226
      8 F         137.6535  136.6656  166.6678 F       1  UNL1       -0.1657
      9 F         137.0640  138.5998  167.3089 F       1  UNL1       -0.1657
     10 F         139.0928  137.5333  165.3734 F       1  UNL1       -0.1657
     11 N         139.8213  139.5889  168.2502 N.pl3   1  UNL1       -0.3183
     12 H         139.3821  138.7678  168.5696 H       1  UNL1        0.1482
     13 C         142.3310  140.4573  168.5539 C.3     1  UNL1        0.0755
     14 C         143.1104  141.0778  169.6754 C.3     1  UNL1        0.0177
     15 C         142.1981  141.2042  170.8594 C.3     1  UNL1        0.0032
     16 C         140.8550  140.6618  170.4696 C.3     1  UNL1        0.0209
     17 C         140.9371  140.2003  169.0447 C.3     1  UNL1        0.0849
     18 C         143.1456  141.2629  166.2221 C.3     1  UNL1        0.0897
     19 N         142.8539  140.1482  167.1824 N.3     1  UNL1       -0.2700
     20 C         143.0851  138.7242  166.7712 C.3     1  UNL1        0.0897
     21 N         139.7779  143.6706  165.0349 N.pl3   1  UNL1       -0.2825
     22 H         139.8233  144.3497  165.7463 H       1  UNL1        0.1551
     23 C         140.1337  144.0369  163.6245 C.ar    1  UNL1        0.0505
     24 C         141.1499  143.2288  162.8733 C.ar    1  UNL1        0.0160
     25 C         141.5057  143.5951  161.4629 C.ar    1  UNL1        0.0196
     26 C         140.8452  144.7696  160.8037 C.ar    1  UNL1        0.1058
     27 C         139.8291  145.5776  161.5549 C.ar    1  UNL1        0.0196
     28 C         139.4733  145.2113  162.9653 C.ar    1  UNL1        0.0160
     29 S         141.2010  145.1359  159.3933 S.O2    1  UNL1        0.0105
     30 C         141.5568  145.5022  157.9829 C.3     1  UNL1        0.1816
     31 O         142.5317  144.4625  159.5541 O.2     1  UNL1       -0.1686
     32 O         139.8703  145.8092  159.2325 O.2     1  UNL1       -0.1686
@<TRIPOS>BOND
     1    18    19    1
     2    19    20    1
     3    13    19    1
     4    13    14    1
     5    14    15    1
     6    15    16    1
     7    16    17    1
     8    17    11    1
     9    11     1    1
    10     1     2   ar
    11     2     3   ar
    12     3    21    1
    13    21    23    1
    14    23    24   ar
    15    24    25   ar
    16    25    26   ar
    17    26    29    1
    18    29    30    1
    19    29    31    2
    20    29    32    2
    21    26    27   ar
    22    27    28   ar
    23     3     4   ar
    24     4     5   ar
    25     5     6   ar
    26     6     7    1
    27     7     8    1
    28     7     9    1
    29     7    10    1
    30    17    13    1
    31     6     1   ar
    32    28    23   ar
    33    11    12    1
    34    21    22    1
@<TRIPOS>MOLECULE
*****
 32 34 0 0 0
SMALL
GASTEIGER

@<TRIPOS>ATOM
      1 C         141.6435  141.6132  167.7316 C.ar    1  UNL1        0.1368
      2 N         140.6562  140.7520  167.0011 N.ar    1  UNL1       -0.1989
      3 C         139.6400  139.9597  167.7688 C.ar    1  UNL1        0.2218
      4 N         139.6110  140.0285  169.2670 N.ar    1  UNL1       -0.2120
      5 C         140.5983  140.8896  169.9974 C.ar    1  UNL1        0.1085
      6 C         141.6146  141.6820  169.2298 C.ar    1  UNL1        0.1219
      7 C         142.6020  142.5432  169.9602 C.3     1  UNL1        0.4226
      8 F         143.5892  143.4043  170.6906 F       1  UNL1       -0.1657
      9 F         141.6193  143.6764  169.9524 F       1  UNL1       -0.1657
     10 F         143.5846  141.4100  169.9680 F       1  UNL1       -0.1657
     11 N         142.6599  142.4056  166.9639 N.pl3   1  UNL1       -0.3183
     12 H         143.4570  142.7583  167.4215 H       1  UNL1        0.1482
     13 C         143.1420  141.9333  164.3775 C.3     1  UNL1        0.0755
     14 C         142.6489  142.5108  163.0839 C.3     1  UNL1        0.0177
     15 C         141.6638  143.5951  163.4061 C.3     1  UNL1        0.0032
     16 C         141.5480  143.6876  164.8987 C.3     1  UNL1        0.0209
     17 C         142.4615  142.6606  165.4991 C.3     1  UNL1        0.0849
     18 C         145.5441  141.0070  164.0287 C.3     1  UNL1        0.0897
     19 N         144.1402  140.8233  164.5238 N.3     1  UNL1       -0.2700
     20 C         143.7345  139.5293  165.1652 C.3     1  UNL1        0.0897
     21 N         138.6526  139.0985  167.0384 N.pl3   1  UNL1       -0.2825
     22 H         137.9407  138.6350  167.5361 H       1  UNL1        0.1551
     23 C         138.7498  138.9435  165.5496 C.ar    1  UNL1        0.0505
     24 C         139.3843  137.7173  164.9630 C.ar    1  UNL1        0.0160
     25 C         139.4815  137.5623  163.4742 C.ar    1  UNL1        0.0196
     26 C         138.9443  138.6335  162.5720 C.ar    1  UNL1        0.1058
     27 C         138.3098  139.8596  163.1585 C.ar    1  UNL1        0.0196
     28 C         138.2126  140.0146  164.6473 C.ar    1  UNL1        0.0160
     29 S         139.0415  138.4785  161.0832 S.O2    1  UNL1        0.0105
     30 C         139.1387  138.3235  159.5944 C.3     1  UNL1        0.1816
     31 O         140.3457  137.7551  161.2436 O.2     1  UNL1       -0.1686
     32 O         137.7373  139.2019  160.9227 O.2     1  UNL1       -0.1686
@<TRIPOS>BOND
     1    18    19    1
     2    19    20    1
     3    13    19    1
     4    13    14    1
     5    14    15    1
     6    15    16    1
     7    16    17    1
     8    17    11    1
     9    11     1    1
    10     1     2   ar
    11     2     3   ar
    12     3    21    1
    13    21    23    1
    14    23    24   ar
    15    24    25   ar
    16    25    26   ar
    17    26    29    1
    18    29    30    1
    19    29    31    2
    20    29    32    2
    21    26    27   ar
    22    27    28   ar
    23     3     4   ar
    24     4     5   ar
    25     5     6   ar
    26     6     7    1
    27     7     8    1
    28     7     9    1
    29     7    10    1
    30    17    13    1
    31     6     1   ar
    32    28    23   ar
    33    11    12    1
    34    21    22    1
@<TRIPOS>MOLECULE
*****
 32 34 0 0 0
SMALL
GASTEIGER

@<TRIPOS>ATOM
      1 C         140.7652  140.8067  166.9522 C.ar    1  UNL1        0.1368
      2 N         141.7065  140.1454  165.9895 N.ar    1  UNL1       -0.1989
      3 C         142.8128  139.2721  166.5027 C.ar    1  UNL1        0.2218
      4 N         142.9778  139.0600  167.9784 N.ar    1  UNL1       -0.2120
      5 C         142.0365  139.7213  168.9410 C.ar    1  UNL1        0.1085
      6 C         140.9302  140.5946  168.4279 C.ar    1  UNL1        0.1219
      7 C         139.9889  141.2559  169.3905 C.3     1  UNL1        0.4226
      8 F         139.0476  141.9172  170.3531 F       1  UNL1       -0.1657
      9 F         140.8377  142.4924  169.3711 F       1  UNL1       -0.1657
     10 F         139.1400  140.0194  169.4100 F       1  UNL1       -0.1657
     11 N         139.6588  141.6801  166.4391 N.pl3   1  UNL1       -0.3183
     12 H         139.3630  142.4589  166.9636 H       1  UNL1        0.1482
     13 C         138.4721  140.0293  164.7037 C.3     1  UNL1        0.0755
     14 C         137.9042  140.1718  163.3227 C.3     1  UNL1        0.0177
     15 C         138.0844  141.5973  162.8923 C.3     1  UNL1        0.0032
     16 C         138.7636  142.3359  164.0073 C.3     1  UNL1        0.0209
     17 C         139.0032  141.3667  165.1268 C.3     1  UNL1        0.0849
     18 C         137.7424  138.6928  166.8088 C.3     1  UNL1        0.0897
     19 N         138.5034  138.7703  165.5185 N.3     1  UNL1       -0.2700
     20 C         139.2957  137.5886  165.0430 C.3     1  UNL1        0.0897
     21 N         143.7541  138.6108  165.5400 N.pl3   1  UNL1       -0.2825
     22 H         144.3580  137.8989  165.8526 H       1  UNL1        0.1551
     23 C         143.7753  139.0342  164.1012 C.ar    1  UNL1        0.0505
     24 C         144.6308  140.1892  163.6718 C.ar    1  UNL1        0.0160
     25 C         144.6520  140.6127  162.2330 C.ar    1  UNL1        0.0196
     26 C         143.8177  139.8811  161.2235 C.ar    1  UNL1        0.1058
     27 C         142.9623  138.7262  161.6529 C.ar    1  UNL1        0.0196
     28 C         142.9411  138.3028  163.0917 C.ar    1  UNL1        0.0160
     29 S         143.8389  140.3046  159.7847 S.O2    1  UNL1        0.0105
     30 C         143.8601  140.7280  158.3458 C.3     1  UNL1        0.1816
     31 O         143.6930  138.8730  159.3612 O.2     1  UNL1       -0.1686
     32 O         143.9849  141.7361  160.2081 O.2     1  UNL1       -0.1686
@<TRIPOS>BOND
     1    18    19    1
     2    19    20    1
     3    13    19    1
     4    13    14    1
     5    14    15    1
     6    15    16    1
     7    16    17    1
     8    17    11    1
     9    11     1    1
    10     1     2   ar
    11     2     3   ar
    12     3    21    1
    13    21    23    1
    14    23    24   ar
    15    24    25   ar
    16    25    26   ar
    17    26    29    1
    18    29    30    1
    19    29    31    2
    20    29    32    2
    21    26    27   ar
    22    27    28   ar
    23     3     4   ar
    24     4     5   ar
    25     5     6   ar
    26     6     7    1
    27     7     8    1
    28     7     9    1
    29     7    10    1
    30    17    13    1
    31     6     1   ar
    32    28    23   ar
    33    11    12    1
    34    21    22    1
@<TRIPOS>MOLECULE
*****
 32 34 0 0 0
SMALL
GASTEIGER

@<TRIPOS>ATOM
      1 C         140.7806  141.6667  167.0335 C.ar    1  UNL1        0.1368
      2 N         141.8556  142.1920  166.1290 N.ar    1  UNL1       -0.1989
      3 C         143.1845  142.5929  166.6975 C.ar    1  UNL1        0.2218
      4 N         143.4384  142.4684  168.1706 N.ar    1  UNL1       -0.2120
      5 C         142.3633  141.9431  169.0752 C.ar    1  UNL1        0.1085
      6 C         141.0344  141.5422  168.5066 C.ar    1  UNL1        0.1219
      7 C         139.9593  141.0169  169.4112 C.3     1  UNL1        0.4226
      8 F         138.8842  140.4915  170.3157 F       1  UNL1       -0.1657
      9 F         140.3983  139.6130  169.1176 F       1  UNL1       -0.1657
     10 F         139.5203  142.4208  169.7048 F       1  UNL1       -0.1657
     11 N         139.4516  141.2658  166.4650 N.pl3   1  UNL1       -0.3183
     12 H         138.7424  141.9388  166.3493 H       1  UNL1        0.1482
     13 C         139.9309  139.0795  165.0037 C.3     1  UNL1        0.0755
     14 C         139.3609  137.6930  164.9508 C.3     1  UNL1        0.0177
     15 C         138.2808  137.5961  165.9871 C.3     1  UNL1        0.0032
     16 C         138.1833  138.9227  166.6805 C.3     1  UNL1        0.0209
     17 C         139.2031  139.8395  166.0727 C.3     1  UNL1        0.0849
     18 C         142.4364  139.1084  164.3169 C.3     1  UNL1        0.0897
     19 N         141.0349  139.6124  164.1392 N.3     1  UNL1       -0.2700
     20 C         140.7373  140.6495  163.0970 C.3     1  UNL1        0.0897
     21 N         144.2597  143.1182  165.7930 N.pl3   1  UNL1       -0.2825
     22 H         145.0880  143.4876  166.1758 H       1  UNL1        0.1551
     23 C         144.0726  143.0807  164.3052 C.ar    1  UNL1        0.0505
     24 C         143.2625  144.1437  163.6241 C.ar    1  UNL1        0.0160
     25 C         143.0754  144.1062  162.1362 C.ar    1  UNL1        0.0196
     26 C         143.6985  143.0057  161.3295 C.ar    1  UNL1        0.1058
     27 C         144.5085  141.9427  162.0106 C.ar    1  UNL1        0.0196
     28 C         144.6956  141.9802  163.4984 C.ar    1  UNL1        0.0160
     29 S         143.5114  142.9682  159.8417 S.O2    1  UNL1        0.0105
     30 C         143.3243  142.9307  158.3539 C.3     1  UNL1        0.1816
     31 O         144.3461  141.7241  159.7681 O.2     1  UNL1       -0.1686
     32 O         142.6767  144.2123  159.9153 O.2     1  UNL1       -0.1686
@<TRIPOS>BOND
     1    18    19    1
     2    19    20    1
     3    13    19    1
     4    13    14    1
     5    14    15    1
     6    15    16    1
     7    16    17    1
     8    17    11    1
     9    11     1    1
    10     1     2   ar
    11     2     3   ar
    12     3    21    1
    13    21    23    1
    14    23    24   ar
    15    24    25   ar
    16    25    26   ar
    17    26    29    1
    18    29    30    1
    19    29    31    2
    20    29    32    2
    21    26    27   ar
    22    27    28   ar
    23     3     4   ar
    24     4     5   ar
    25     5     6   ar
    26     6     7    1
    27     7     8    1
    28     7     9    1
    29     7    10    1
    30    17    13    1
    31     6     1   ar
    32    28    23   ar
    33    11    12    1
    34    21    22    1
@<TRIPOS>MOLECULE
*****
 32 34 0 0 0
SMALL
GASTEIGER

@<TRIPOS>ATOM
      1 C         138.1977  140.6417  162.5870 C.ar    1  UNL1        0.1368
      2 N         138.4999  140.2093  163.9912 N.ar    1  UNL1       -0.1989
      3 C         138.7829  138.7663  164.2870 C.ar    1  UNL1        0.2218
      4 N         138.7639  137.7557  163.1787 N.ar    1  UNL1       -0.2120
      5 C         138.4617  138.1881  161.7746 C.ar    1  UNL1        0.1085
      6 C         138.1787  139.6311  161.4787 C.ar    1  UNL1        0.1219
      7 C         137.8765  140.0636  160.0745 C.3     1  UNL1        0.4226
      8 F         137.5744  140.4960  158.6704 F       1  UNL1       -0.1657
      9 F         139.2971  140.5153  159.9080 F       1  UNL1       -0.1657
     10 F         136.4559  139.6118  160.2410 F       1  UNL1       -0.1657
     11 N         137.9146  142.0848  162.2911 N.pl3   1  UNL1       -0.3183
     12 H         137.3835  142.3299  161.4993 H       1  UNL1        0.1482
     13 C         139.7710  143.8374  163.0831 C.3     1  UNL1        0.0755
     14 C         139.8815  144.8338  164.1989 C.3     1  UNL1        0.0177
     15 C         138.6197  144.7665  165.0071 C.3     1  UNL1        0.0032
     16 C         137.7293  143.7285  164.3908 C.3     1  UNL1        0.0209
     17 C         138.4408  143.1543  163.2017 C.3     1  UNL1        0.0849
     18 C         141.1220  144.6179  161.0058 C.3     1  UNL1        0.0897
     19 N         140.8085  143.5709  162.0331 N.3     1  UNL1       -0.2700
     20 C         141.5324  142.2573  162.0103 C.3     1  UNL1        0.0897
     21 N         139.0851  138.3338  165.6913 N.pl3   1  UNL1       -0.2825
     22 H         138.7928  137.4484  166.0073 H       1  UNL1        0.1551
     23 C         139.8326  139.2503  166.6138 C.ar    1  UNL1        0.0505
     24 C         139.1448  139.8308  167.8139 C.ar    1  UNL1        0.0160
     25 C         139.8923  140.7473  168.7365 C.ar    1  UNL1        0.0196
     26 C         141.3277  141.0834  168.4590 C.ar    1  UNL1        0.1058
     27 C         142.0154  140.5030  167.2590 C.ar    1  UNL1        0.0196
     28 C         141.2679  139.5864  166.3364 C.ar    1  UNL1        0.0160
     29 S         142.0752  142.0000  169.3816 S.O2    1  UNL1        0.0105
     30 C         142.8227  142.9165  170.3042 C.3     1  UNL1        0.1816
     31 O         143.0907  142.2533  168.3071 O.2     1  UNL1       -0.1686
     32 O         141.0596  141.7467  170.4561 O.2     1  UNL1       -0.1686
@<TRIPOS>BOND
     1    18    19    1
     2    19    20    1
     3    13    19    1
     4    13    14    1
     5    14    15    1
     6    15    16    1
     7    16    17    1
     8    17    11    1
     9    11     1    1
    10     1     2   ar
    11     2     3   ar
    12     3    21    1
    13    21    23    1
    14    23    24   ar
    15    24    25   ar
    16    25    26   ar
    17    26    29    1
    18    29    30    1
    19    29    31    2
    20    29    32    2
    21    26    27   ar
    22    27    28   ar
    23     3     4   ar
    24     4     5   ar
    25     5     6   ar
    26     6     7    1
    27     7     8    1
    28     7     9    1
    29     7    10    1
    30    17    13    1
    31     6     1   ar
    32    28    23   ar
    33    11    12    1
    34    21    22    1
@<TRIPOS>MOLECULE
*****
 32 34 0 0 0
SMALL
GASTEIGER

@<TRIPOS>ATOM
      1 C         140.7259  140.7427  166.9995 C.ar    1  UNL1        0.1368
      2 N         141.7279  140.1493  166.0542 N.ar    1  UNL1       -0.1989
      3 C         142.8524  139.3093  166.5833 C.ar    1  UNL1        0.2218
      4 N         142.9748  139.0627  168.0578 N.ar    1  UNL1       -0.2120
      5 C         141.9728  139.6561  169.0032 C.ar    1  UNL1        0.1085
      6 C         140.8483  140.4961  168.4741 C.ar    1  UNL1        0.1219
      7 C         139.8462  141.0895  169.4194 C.3     1  UNL1        0.4226
      8 F         138.8441  141.6828  170.3648 F       1  UNL1       -0.1657
      9 F         138.9168  139.9424  169.1541 F       1  UNL1       -0.1657
     10 F         140.7756  142.2365  169.6848 F       1  UNL1       -0.1657
     11 N         139.6014  141.5827  166.4704 N.pl3   1  UNL1       -0.3183
     12 H         139.2134  142.2943  167.0292 H       1  UNL1        0.1482
     13 C         139.4063  142.1293  163.8612 C.3     1  UNL1        0.0755
     14 C         138.6500  141.5399  162.7076 C.3     1  UNL1        0.0177
     15 C         137.8443  140.3846  163.2234 C.3     1  UNL1        0.0032
     16 C         138.1026  140.2600  164.6958 C.3     1  UNL1        0.0209
     17 C         139.0680  141.3383  165.0899 C.3     1  UNL1        0.0849
     18 C         139.7859  144.6914  163.6579 C.3     1  UNL1        0.0897
     19 N         140.3375  143.3035  163.7971 N.3     1  UNL1       -0.2700
     20 C         141.8203  143.0899  163.8724 C.3     1  UNL1        0.0897
     21 N         143.8545  138.7159  165.6379 N.pl3   1  UNL1       -0.2825
     22 H         144.4797  138.0241  165.9538 H       1  UNL1        0.1551
     23 C         143.9040  139.1766  164.2113 C.ar    1  UNL1        0.0505
     24 C         143.1748  138.4082  163.1492 C.ar    1  UNL1        0.0160
     25 C         143.2244  138.8688  161.7226 C.ar    1  UNL1        0.0196
     26 C         144.0031  140.0980  161.3580 C.ar    1  UNL1        0.1058
     27 C         144.7323  140.8664  162.4200 C.ar    1  UNL1        0.0196
     28 C         144.6827  140.4057  163.8466 C.ar    1  UNL1        0.0160
     29 S         144.0526  140.5587  159.9313 S.O2    1  UNL1        0.0105
     30 C         144.1022  141.0194  158.5047 C.3     1  UNL1        0.1816
     31 O         144.1021  141.9848  160.3936 O.2     1  UNL1       -0.1686
     32 O         144.0032  139.1325  159.4691 O.2     1  UNL1       -0.1686
@<TRIPOS>BOND
     1    18    19    1
     2    19    20    1
     3    13    19    1
     4    13    14    1
     5    14    15    1
     6    15    16    1
     7    16    17    1
     8    17    11    1
     9    11     1    1
    10     1     2   ar
    11     2     3   ar
    12     3    21    1
    13    21    23    1
    14    23    24   ar
    15    24    25   ar
    16    25    26   ar
    17    26    29    1
    18    29    30    1
    19    29    31    2
    20    29    32    2
    21    26    27   ar
    22    27    28   ar
    23     3     4   ar
    24     4     5   ar
    25     5     6   ar
    26     6     7    1
    27     7     8    1
    28     7     9    1
    29     7    10    1
    30    17    13    1
    31     6     1   ar
    32    28    23   ar
    33    11    12    1
    34    21    22    1
