@<TRIPOS>MOLECULE
*****
 34 38 0 0 0
SMALL
GASTEIGER

@<TRIPOS>ATOM
      1 C         141.7353  138.0015  163.7559 C.2     1  UNL1        0.2301
      2 O         140.8476  136.9070  163.2422 O.2     1  UNL1       -0.2745
      3 N         142.1116  139.1445  162.8603 N.am    1  UNL1       -0.2764
      4 C         141.6001  139.1929  161.4510 C.3     1  UNL1        0.1107
      5 C         141.9764  140.3358  160.5555 C.3     1  UNL1        0.0939
      6 N         142.8641  141.4304  161.0692 N.3     1  UNL1       -0.2695
      7 C         143.3756  141.3820  162.4784 C.3     1  UNL1        0.0939
      8 C         142.9994  140.2390  163.3739 C.3     1  UNL1        0.1107
      9 C         142.2468  137.9531  165.1651 C.3     1  UNL1        0.1117
     10 C         142.1944  140.3951  168.2931 C.ar    1  UNL1        0.1560
     11 C         142.6730  139.3910  167.2867 C.ar    1  UNL1        0.0347
     12 C         141.7683  138.9571  166.1715 C.ar    1  UNL1       -0.0100
     13 C         140.3852  139.5273  166.0629 C.ar    1  UNL1       -0.0020
     14 C         139.9067  140.5314  167.0694 C.ar    1  UNL1        0.0220
     15 C         140.8113  140.9653  168.1844 C.ar    1  UNL1        0.1200
     16 N         140.3328  141.9694  169.1909 N.ar    1  UNL1       -0.1856
     17 C         140.5978  143.4454  169.1584 C.ar    1  UNL1        0.2259
     18 N         139.9342  144.0620  170.3539 N.ar    1  UNL1       -0.1045
     19 N         139.2589  142.9670  171.1253 N.ar    1  UNL1       -0.0222
     20 N         139.5053  141.6737  170.4065 N.ar    1  UNL1       -0.0384
     21 C         143.0001  140.1720  170.7530 C.3     1  UNL1        0.2525
     22 O         143.0991  140.8290  169.4082 O.3     1  UNL1       -0.4699
     23 C         143.2404  142.5734  160.1735 C.3     1  UNL1        0.0769
     24 C         142.5587  143.9008  160.3251 C.3     1  UNL1        0.0437
     25 C         141.6162  144.1338  161.4686 C.ar    1  UNL1       -0.0210
     26 C         142.1015  144.8151  162.7136 C.ar    1  UNL1       -0.0040
     27 C         141.1591  145.0480  163.8571 C.ar    1  UNL1        0.0059
     28 C         139.7313  144.5996  163.7555 C.ar    1  UNL1        0.0751
     29 C         139.2460  143.9182  162.5104 C.ar    1  UNL1        0.0272
     30 C         140.1884  143.6853  161.3670 C.ar    1  UNL1       -0.0047
     31 C         137.7945  143.5893  162.6978 C.3     1  UNL1        0.2356
     32 O         137.3828  144.0674  164.0586 O.3     1  UNL1       -0.4404
     33 C         138.5798  144.6918  164.7124 C.2     1  UNL1        0.3413
     34 O         138.6185  145.3014  166.0823 O.2     1  UNL1       -0.2449
@<TRIPOS>BOND
     1    21    22    1
     2    22    10    1
     3    10    11   ar
     4    11    12   ar
     5    12     9    1
     6     9     1    1
     7     1     2    2
     8     1     3   am
     9     3     4    1
    10     4     5    1
    11     5     6    1
    12     6    23    1
    13    23    24    1
    14    24    25    1
    15    25    26   ar
    16    26    27   ar
    17    27    28   ar
    18    28    29   ar
    19    29    30   ar
    20    29    31    1
    21    31    32    1
    22    32    33    1
    23    33    34    2
    24     6     7    1
    25     7     8    1
    26    12    13   ar
    27    13    14   ar
    28    14    15   ar
    29    15    16    1
    30    16    17   ar
    31    17    18   ar
    32    18    19   ar
    33    19    20   ar
    34    15    10   ar
    35    20    16   ar
    36     8     3    1
    37    30    25   ar
    38    33    28    1
@<TRIPOS>MOLECULE
*****
 34 38 0 0 0
SMALL
GASTEIGER

@<TRIPOS>ATOM
      1 C         139.7212  137.6909  163.4393 C.2     1  UNL1        0.2301
      2 O         140.9519  136.8362  163.3694 O.2     1  UNL1       -0.2745
      3 N         139.3621  138.5842  162.2890 N.am    1  UNL1       -0.2764
      4 C         140.2338  138.6228  161.0689 C.3     1  UNL1        0.1107
      5 C         139.8747  139.5161  159.9187 C.3     1  UNL1        0.0939
      6 N         138.6440  140.3708  159.9886 N.3     1  UNL1       -0.2695
      7 C         137.7724  140.3322  161.2087 C.3     1  UNL1        0.0939
      8 C         138.1314  139.4389  162.3589 C.3     1  UNL1        0.1107
      9 C         138.8496  137.6522  164.6594 C.3     1  UNL1        0.1117
     10 C         140.7737  140.1529  167.0665 C.ar    1  UNL1        0.1560
     11 C         140.4685  139.2628  165.8984 C.ar    1  UNL1        0.0347
     12 C         139.1548  138.5423  165.8276 C.ar    1  UNL1       -0.0100
     13 C         138.1463  138.7118  166.9249 C.ar    1  UNL1       -0.0020
     14 C         138.4516  139.6019  168.0931 C.ar    1  UNL1        0.0220
     15 C         139.7653  140.3224  168.1639 C.ar    1  UNL1        0.1200
     16 N         140.0705  141.2125  169.3321 N.ar    1  UNL1       -0.1856
     17 C         140.3411  142.6866  169.2704 C.ar    1  UNL1        0.2259
     18 N         140.5966  143.1700  170.6672 N.ar    1  UNL1       -0.1045
     19 N         140.4840  141.9945  171.5922 N.ar    1  UNL1       -0.0222
     20 N         140.1589  140.7848  170.7671 N.ar    1  UNL1       -0.0384
     21 C         142.3901  141.9782  166.1689 C.3     1  UNL1        0.2525
     22 O         142.0875  140.8734  167.1374 O.3     1  UNL1       -0.4699
     23 C         138.2849  141.2641  158.8382 C.3     1  UNL1        0.0769
     24 C         138.6435  142.7200  158.8790 C.3     1  UNL1        0.0437
     25 C         139.7468  143.1959  159.7770 C.ar    1  UNL1       -0.0210
     26 C         141.1673  143.1743  159.2959 C.ar    1  UNL1       -0.0040
     27 C         142.2705  143.6502  160.1939 C.ar    1  UNL1        0.0059
     28 C         141.9532  144.1477  161.5729 C.ar    1  UNL1        0.0751
     29 C         140.5326  144.1694  162.0540 C.ar    1  UNL1        0.0272
     30 C         139.4294  143.6935  161.1560 C.ar    1  UNL1       -0.0047
     31 C         140.5252  144.7106  163.4529 C.3     1  UNL1        0.2356
     32 O         141.9412  145.0234  163.8364 O.3     1  UNL1       -0.4404
     33 C         142.8238  144.6756  162.6745 C.2     1  UNL1        0.3413
     34 O         144.3151  144.8287  162.6232 O.2     1  UNL1       -0.2449
@<TRIPOS>BOND
     1    21    22    1
     2    22    10    1
     3    10    11   ar
     4    11    12   ar
     5    12     9    1
     6     9     1    1
     7     1     2    2
     8     1     3   am
     9     3     4    1
    10     4     5    1
    11     5     6    1
    12     6    23    1
    13    23    24    1
    14    24    25    1
    15    25    26   ar
    16    26    27   ar
    17    27    28   ar
    18    28    29   ar
    19    29    30   ar
    20    29    31    1
    21    31    32    1
    22    32    33    1
    23    33    34    2
    24     6     7    1
    25     7     8    1
    26    12    13   ar
    27    13    14   ar
    28    14    15   ar
    29    15    16    1
    30    16    17   ar
    31    17    18   ar
    32    18    19   ar
    33    19    20   ar
    34    15    10   ar
    35    20    16   ar
    36     8     3    1
    37    30    25   ar
    38    33    28    1
@<TRIPOS>MOLECULE
*****
 34 38 0 0 0
SMALL
GASTEIGER

@<TRIPOS>ATOM
      1 C         144.8710  140.7839  163.0173 C.2     1  UNL1        0.2301
      2 O         146.1494  141.4955  163.3476 O.2     1  UNL1       -0.2745
      3 N         144.0040  141.2799  161.8981 N.am    1  UNL1       -0.2764
      4 C         144.4155  142.4875  161.1093 C.3     1  UNL1        0.1107
      5 C         143.5486  142.9835  159.9903 C.3     1  UNL1        0.0939
      6 N         142.2701  142.2718  159.6600 N.3     1  UNL1       -0.2695
      7 C         141.8586  141.0642  160.4488 C.3     1  UNL1        0.0939
      8 C         142.7255  140.5683  161.5679 C.3     1  UNL1        0.1107
      9 C         144.4594  139.5763  163.8061 C.3     1  UNL1        0.1117
     10 C         142.5374  141.2355  166.8561 C.ar    1  UNL1        0.1560
     11 C         143.2051  141.0689  165.5234 C.ar    1  UNL1        0.0347
     12 C         143.7917  139.7429  165.1389 C.ar    1  UNL1       -0.0100
     13 C         143.7105  138.5836  166.0872 C.ar    1  UNL1       -0.0020
     14 C         143.0428  138.7502  167.4201 C.ar    1  UNL1        0.0220
     15 C         142.4562  140.0762  167.8045 C.ar    1  UNL1        0.1200
     16 N         141.7884  140.2428  169.1373 N.ar    1  UNL1       -0.1856
     17 C         142.3899  140.8887  170.3502 C.ar    1  UNL1        0.2259
     18 N         141.3753  140.8380  171.4538 N.ar    1  UNL1       -0.1045
     19 N         140.1466  140.1606  170.9229 N.ar    1  UNL1       -0.0222
     20 N         140.4020  139.7928  169.4913 N.ar    1  UNL1       -0.0384
     21 C         140.4901  142.8262  167.0252 C.3     1  UNL1        0.2525
     22 O         141.9508  142.5615  167.2406 O.3     1  UNL1       -0.4699
     23 C         141.4031  142.7678  158.5408 C.3     1  UNL1        0.0769
     24 C         140.2401  143.6681  158.8355 C.3     1  UNL1        0.0437
     25 C         139.8054  143.8919  160.2537 C.ar    1  UNL1       -0.0210
     26 C         140.3132  145.0803  161.0151 C.ar    1  UNL1       -0.0040
     27 C         139.8785  145.3041  162.4331 C.ar    1  UNL1        0.0059
     28 C         138.9359  144.3395  163.0897 C.ar    1  UNL1        0.0751
     29 C         138.4280  143.1511  162.3283 C.ar    1  UNL1        0.0272
     30 C         138.8628  142.9273  160.9103 C.ar    1  UNL1       -0.0047
     31 C         137.5149  142.3771  163.2322 C.3     1  UNL1        0.2356
     32 O         137.4583  143.0872  164.5523 O.3     1  UNL1       -0.4404
     33 C         138.3365  144.3000  164.4643 C.2     1  UNL1        0.3413
     34 O         138.5738  145.2981  165.5586 O.2     1  UNL1       -0.2449
@<TRIPOS>BOND
     1    21    22    1
     2    22    10    1
     3    10    11   ar
     4    11    12   ar
     5    12     9    1
     6     9     1    1
     7     1     2    2
     8     1     3   am
     9     3     4    1
    10     4     5    1
    11     5     6    1
    12     6    23    1
    13    23    24    1
    14    24    25    1
    15    25    26   ar
    16    26    27   ar
    17    27    28   ar
    18    28    29   ar
    19    29    30   ar
    20    29    31    1
    21    31    32    1
    22    32    33    1
    23    33    34    2
    24     6     7    1
    25     7     8    1
    26    12    13   ar
    27    13    14   ar
    28    14    15   ar
    29    15    16    1
    30    16    17   ar
    31    17    18   ar
    32    18    19   ar
    33    19    20   ar
    34    15    10   ar
    35    20    16   ar
    36     8     3    1
    37    30    25   ar
    38    33    28    1
@<TRIPOS>MOLECULE
*****
 34 38 0 0 0
SMALL
GASTEIGER

@<TRIPOS>ATOM
      1 C         139.6807  137.8867  163.3031 C.2     1  UNL1        0.2301
      2 O         140.8203  136.9398  163.0693 O.2     1  UNL1       -0.2745
      3 N         139.3631  138.9434  162.2869 N.am    1  UNL1       -0.2764
      4 C         140.1850  139.0532  161.0370 C.3     1  UNL1        0.1107
      5 C         139.8674  140.1098  160.0209 C.3     1  UNL1        0.0939
      6 N         138.7278  141.0568  160.2547 N.3     1  UNL1       -0.2695
      7 C         137.9058  140.9470  161.5046 C.3     1  UNL1        0.0939
      8 C         138.2235  139.8903  162.5207 C.3     1  UNL1        0.1107
      9 C         138.8587  137.7770  164.5530 C.3     1  UNL1        0.1117
     10 C         140.8436  140.1748  167.0149 C.ar    1  UNL1        0.1560
     11 C         140.5134  139.3257  165.8232 C.ar    1  UNL1        0.0347
     12 C         139.1889  138.6260  165.7446 C.ar    1  UNL1       -0.0100
     13 C         138.1945  138.7754  166.8577 C.ar    1  UNL1       -0.0020
     14 C         138.5247  139.6245  168.0494 C.ar    1  UNL1        0.0220
     15 C         139.8492  140.3242  168.1280 C.ar    1  UNL1        0.1200
     16 N         140.1794  141.1733  169.3197 N.ar    1  UNL1       -0.1856
     17 C         140.4192  140.6788  170.7154 C.ar    1  UNL1        0.2259
     18 N         140.7158  141.8658  171.5832 N.ar    1  UNL1       -0.1045
     19 N         140.6593  143.0939  170.7237 N.ar    1  UNL1       -0.0222
     20 N         140.3278  142.6659  169.3249 N.ar    1  UNL1       -0.0384
     21 C         142.4064  142.1209  166.2938 C.3     1  UNL1        0.2525
     22 O         142.1681  140.8745  167.0935 O.3     1  UNL1       -0.4699
     23 C         138.4102  142.1135  159.2385 C.3     1  UNL1        0.0769
     24 C         139.3873  143.2213  158.9780 C.3     1  UNL1        0.0437
     25 C         140.3985  143.5905  160.0226 C.ar    1  UNL1       -0.0210
     26 C         140.0140  144.5031  161.1492 C.ar    1  UNL1       -0.0040
     27 C         141.0253  144.8723  162.1938 C.ar    1  UNL1        0.0059
     28 C         142.4210  144.3289  162.1117 C.ar    1  UNL1        0.0751
     29 C         142.8055  143.4164  160.9850 C.ar    1  UNL1        0.0272
     30 C         141.7942  143.0472  159.9405 C.ar    1  UNL1       -0.0047
     31 C         144.2459  143.0387  161.1654 C.3     1  UNL1        0.2356
     32 O         144.7517  143.7179  162.4035 O.3     1  UNL1       -0.4404
     33 C         143.6238  144.5153  162.9884 C.2     1  UNL1        0.3413
     34 O         143.6875  145.3522  164.2316 O.2     1  UNL1       -0.2449
@<TRIPOS>BOND
     1    21    22    1
     2    22    10    1
     3    10    11   ar
     4    11    12   ar
     5    12     9    1
     6     9     1    1
     7     1     2    2
     8     1     3   am
     9     3     4    1
    10     4     5    1
    11     5     6    1
    12     6    23    1
    13    23    24    1
    14    24    25    1
    15    25    26   ar
    16    26    27   ar
    17    27    28   ar
    18    28    29   ar
    19    29    30   ar
    20    29    31    1
    21    31    32    1
    22    32    33    1
    23    33    34    2
    24     6     7    1
    25     7     8    1
    26    12    13   ar
    27    13    14   ar
    28    14    15   ar
    29    15    16    1
    30    16    17   ar
    31    17    18   ar
    32    18    19   ar
    33    19    20   ar
    34    15    10   ar
    35    20    16   ar
    36     8     3    1
    37    30    25   ar
    38    33    28    1
@<TRIPOS>MOLECULE
*****
 34 38 0 0 0
SMALL
GASTEIGER

@<TRIPOS>ATOM
      1 C         144.7828  140.1947  163.0624 C.2     1  UNL1        0.2301
      2 O         145.5967  141.4462  162.9159 O.2     1  UNL1       -0.2745
      3 N         143.8391  139.7819  161.9719 N.am    1  UNL1       -0.2764
      4 C         143.7094  140.6205  160.7350 C.3     1  UNL1        0.1107
      5 C         142.7658  140.2077  159.6446 C.3     1  UNL1        0.0939
      6 N         141.9518  138.9563  159.7910 N.3     1  UNL1       -0.2695
      7 C         142.0815  138.1177  161.0279 C.3     1  UNL1        0.0939
      8 C         143.0251  138.5305  162.1183 C.3     1  UNL1        0.1107
      9 C         144.9125  139.3561  164.2992 C.3     1  UNL1        0.1117
     10 C         142.1627  140.9717  166.6612 C.ar    1  UNL1        0.1560
     11 C         143.1283  140.7906  165.5277 C.ar    1  UNL1        0.0347
     12 C         143.9469  139.5373  165.4327 C.ar    1  UNL1       -0.0100
     13 C         143.8000  138.4650  166.4714 C.ar    1  UNL1       -0.0020
     14 C         142.8344  138.6462  167.6049 C.ar    1  UNL1        0.0220
     15 C         142.0158  139.8995  167.6998 C.ar    1  UNL1        0.1200
     16 N         141.0502  140.0807  168.8333 N.ar    1  UNL1       -0.1856
     17 C         141.3986  140.5062  170.2289 C.ar    1  UNL1        0.2259
     18 N         140.1305  140.5566  171.0284 N.ar    1  UNL1       -0.1045
     19 N         138.9982  140.1623  170.1269 N.ar    1  UNL1       -0.0222
     20 N         139.5666  139.8682  168.7703 N.ar    1  UNL1       -0.0384
     21 C         140.1006  142.3731  165.9303 C.3     1  UNL1        0.2525
     22 O         141.3441  142.2251  166.7561 O.3     1  UNL1       -0.4699
     23 C         141.0081  138.5435  158.7005 C.3     1  UNL1        0.0769
     24 C         139.5636  138.9416  158.7682 C.3     1  UNL1        0.0437
     25 C         139.1359  140.0627  159.6685 C.ar    1  UNL1       -0.0210
     26 C         139.2621  141.4845  159.2076 C.ar    1  UNL1       -0.0040
     27 C         138.8345  142.6054  160.1079 C.ar    1  UNL1        0.0059
     28 C         138.2807  142.3046  161.4691 C.ar    1  UNL1        0.0751
     29 C         138.1545  140.8827  161.9300 C.ar    1  UNL1        0.0272
     30 C         138.5821  139.7618  161.0297 C.ar    1  UNL1       -0.0047
     31 C         137.5766  140.8937  163.3141 C.3     1  UNL1        0.2356
     32 O         137.3456  142.3224  163.7087 O.3     1  UNL1       -0.4404
     33 C         137.7808  143.1943  162.5684 C.2     1  UNL1        0.3413
     34 O         137.7257  144.6929  162.5335 O.2     1  UNL1       -0.2449
@<TRIPOS>BOND
     1    21    22    1
     2    22    10    1
     3    10    11   ar
     4    11    12   ar
     5    12     9    1
     6     9     1    1
     7     1     2    2
     8     1     3   am
     9     3     4    1
    10     4     5    1
    11     5     6    1
    12     6    23    1
    13    23    24    1
    14    24    25    1
    15    25    26   ar
    16    26    27   ar
    17    27    28   ar
    18    28    29   ar
    19    29    30   ar
    20    29    31    1
    21    31    32    1
    22    32    33    1
    23    33    34    2
    24     6     7    1
    25     7     8    1
    26    12    13   ar
    27    13    14   ar
    28    14    15   ar
    29    15    16    1
    30    16    17   ar
    31    17    18   ar
    32    18    19   ar
    33    19    20   ar
    34    15    10   ar
    35    20    16   ar
    36     8     3    1
    37    30    25   ar
    38    33    28    1
@<TRIPOS>MOLECULE
*****
 34 38 0 0 0
SMALL
GASTEIGER

@<TRIPOS>ATOM
      1 C         142.2105  137.8013  164.3351 C.2     1  UNL1        0.2301
      2 O         141.0812  136.8149  164.3775 O.2     1  UNL1       -0.2745
      3 N         142.6188  138.4183  163.0302 N.am    1  UNL1       -0.2764
      4 C         141.8978  138.0490  161.7678 C.3     1  UNL1        0.1107
      5 C         142.3061  138.6660  160.4630 C.3     1  UNL1        0.0939
      6 N         143.4354  139.6524  160.4207 N.3     1  UNL1       -0.2695
      7 C         144.1564  140.0217  161.6831 C.3     1  UNL1        0.0939
      8 C         143.7481  139.4047  162.9879 C.3     1  UNL1        0.1107
      9 C         142.9315  138.1706  165.5975 C.3     1  UNL1        0.1117
     10 C         140.7012  141.1528  166.9695 C.ar    1  UNL1        0.1560
     11 C         141.2950  140.1405  166.0354 C.ar    1  UNL1        0.0347
     12 C         142.3376  139.1829  166.5316 C.ar    1  UNL1       -0.0100
     13 C         142.7863  139.2376  167.9619 C.ar    1  UNL1       -0.0020
     14 C         142.1924  140.2500  168.8960 C.ar    1  UNL1        0.0220
     15 C         141.1499  141.2075  168.3998 C.ar    1  UNL1        0.1200
     16 N         140.5559  142.2199  169.3339 N.ar    1  UNL1       -0.1856
     17 C         139.5881  141.9344  170.4438 C.ar    1  UNL1        0.2259
     18 N         139.2596  143.2335  171.1179 N.ar    1  UNL1       -0.1045
     19 N         140.0244  144.3218  170.4247 N.ar    1  UNL1       -0.0222
     20 N         140.8256  143.6954  169.3221 N.ar    1  UNL1       -0.0384
     21 C         139.1739  142.0233  165.0565 C.3     1  UNL1        0.2525
     22 O         139.6586  142.1104  166.4733 O.3     1  UNL1       -0.4699
     23 C         143.8437  140.2694  159.1158 C.3     1  UNL1        0.0769
     24 C         143.2948  141.6063  158.7141 C.3     1  UNL1        0.0437
     25 C         142.2519  142.2741  159.5606 C.ar    1  UNL1       -0.0210
     26 C         140.7994  141.9746  159.3363 C.ar    1  UNL1       -0.0040
     27 C         139.7566  142.6424  160.1828 C.ar    1  UNL1        0.0059
     28 C         140.1663  143.6095  161.2536 C.ar    1  UNL1        0.0751
     29 C         141.6189  143.9090  161.4780 C.ar    1  UNL1        0.0272
     30 C         142.6617  143.2412  160.6314 C.ar    1  UNL1       -0.0047
     31 C         141.7201  144.8992  162.6001 C.3     1  UNL1        0.2356
     32 O         140.3300  145.2118  163.0693 O.3     1  UNL1       -0.4404
     33 C         139.3697  144.4147  162.2372 C.2     1  UNL1        0.3413
     34 O         137.8753  144.4216  162.3659 O.2     1  UNL1       -0.2449
@<TRIPOS>BOND
     1    21    22    1
     2    22    10    1
     3    10    11   ar
     4    11    12   ar
     5    12     9    1
     6     9     1    1
     7     1     2    2
     8     1     3   am
     9     3     4    1
    10     4     5    1
    11     5     6    1
    12     6    23    1
    13    23    24    1
    14    24    25    1
    15    25    26   ar
    16    26    27   ar
    17    27    28   ar
    18    28    29   ar
    19    29    30   ar
    20    29    31    1
    21    31    32    1
    22    32    33    1
    23    33    34    2
    24     6     7    1
    25     7     8    1
    26    12    13   ar
    27    13    14   ar
    28    14    15   ar
    29    15    16    1
    30    16    17   ar
    31    17    18   ar
    32    18    19   ar
    33    19    20   ar
    34    15    10   ar
    35    20    16   ar
    36     8     3    1
    37    30    25   ar
    38    33    28    1
@<TRIPOS>MOLECULE
*****
 34 38 0 0 0
SMALL
GASTEIGER

@<TRIPOS>ATOM
      1 C         138.9255  138.3981  163.6021 C.2     1  UNL1        0.2301
      2 O         138.8244  136.9160  163.8103 O.2     1  UNL1       -0.2745
      3 N         139.8405  138.9466  162.5477 N.am    1  UNL1       -0.2764
      4 C         140.6544  138.0131  161.7013 C.3     1  UNL1        0.1107
      5 C         141.5693  138.5617  160.6469 C.3     1  UNL1        0.0939
      6 N         141.6705  140.0438  160.4388 N.3     1  UNL1       -0.2695
      7 C         140.8567  140.9772  161.2851 C.3     1  UNL1        0.0939
      8 C         139.9417  140.4287  162.3396 C.3     1  UNL1        0.1107
      9 C         138.1117  139.3315  164.4485 C.3     1  UNL1        0.1117
     10 C         140.1790  141.2518  167.2392 C.ar    1  UNL1        0.1560
     11 C         139.6716  140.8238  165.8942 C.ar    1  UNL1        0.0347
     12 C         138.6192  139.7596  165.7935 C.ar    1  UNL1       -0.0100
     13 C         138.0744  139.1234  167.0379 C.ar    1  UNL1       -0.0020
     14 C         138.5819  139.5515  168.3830 C.ar    1  UNL1        0.0220
     15 C         139.6342  140.6157  168.4836 C.ar    1  UNL1        0.1200
     16 N         140.1418  141.0438  169.8287 N.ar    1  UNL1       -0.1856
     17 C         141.3788  140.5344  170.5073 C.ar    1  UNL1        0.2259
     18 N         141.5030  141.2322  171.8293 N.ar    1  UNL1       -0.1045
     19 N         140.3427  142.1729  171.9678 N.ar    1  UNL1       -0.0222
     20 N         139.5015  142.0564  170.7313 N.ar    1  UNL1       -0.0384
     21 C         142.6718  141.9713  167.1027 C.3     1  UNL1        0.2525
     22 O         141.2314  142.3161  167.3399 O.3     1  UNL1       -0.4699
     23 C         142.5855  140.5923  159.3843 C.3     1  UNL1        0.0769
     24 C         143.9435  141.1050  159.7625 C.3     1  UNL1        0.0437
     25 C         144.1402  141.8143  161.0695 C.ar    1  UNL1       -0.0210
     26 C         144.9444  141.1695  162.1592 C.ar    1  UNL1       -0.0040
     27 C         145.1411  141.8788  163.4661 C.ar    1  UNL1        0.0059
     28 C         144.5335  143.2330  163.6834 C.ar    1  UNL1        0.0751
     29 C         143.7293  143.8778  162.5937 C.ar    1  UNL1        0.0272
     30 C         143.5326  143.1684  161.2868 C.ar    1  UNL1       -0.0047
     31 C         143.2552  145.2100  163.0940 C.3     1  UNL1        0.2356
     32 O         143.7664  145.3886  164.4928 O.3     1  UNL1       -0.4404
     33 C         144.5565  144.1668  164.8571 C.2     1  UNL1        0.3413
     34 O         145.2481  143.9216  166.1654 O.2     1  UNL1       -0.2449
@<TRIPOS>BOND
     1    21    22    1
     2    22    10    1
     3    10    11   ar
     4    11    12   ar
     5    12     9    1
     6     9     1    1
     7     1     2    2
     8     1     3   am
     9     3     4    1
    10     4     5    1
    11     5     6    1
    12     6    23    1
    13    23    24    1
    14    24    25    1
    15    25    26   ar
    16    26    27   ar
    17    27    28   ar
    18    28    29   ar
    19    29    30   ar
    20    29    31    1
    21    31    32    1
    22    32    33    1
    23    33    34    2
    24     6     7    1
    25     7     8    1
    26    12    13   ar
    27    13    14   ar
    28    14    15   ar
    29    15    16    1
    30    16    17   ar
    31    17    18   ar
    32    18    19   ar
    33    19    20   ar
    34    15    10   ar
    35    20    16   ar
    36     8     3    1
    37    30    25   ar
    38    33    28    1
@<TRIPOS>MOLECULE
*****
 34 38 0 0 0
SMALL
GASTEIGER

@<TRIPOS>ATOM
      1 C         137.8965  139.6603  160.9731 C.2     1  UNL1        0.2301
      2 O         137.7976  138.2602  161.5020 O.2     1  UNL1       -0.2745
      3 N         137.8729  140.8233  161.9202 N.am    1  UNL1       -0.2764
      4 C         137.7504  140.5861  163.3962 C.3     1  UNL1        0.1107
      5 C         137.7268  141.7490  164.3433 C.3     1  UNL1        0.0939
      6 N         137.8258  143.1492  163.8143 N.3     1  UNL1       -0.2695
      7 C         137.9483  143.3864  162.3383 C.3     1  UNL1        0.0939
      8 C         137.9719  142.2234  161.3913 C.3     1  UNL1        0.1107
      9 C         138.0190  139.8975  159.4970 C.3     1  UNL1        0.1117
     10 C         141.8262  138.9707  158.8674 C.ar    1  UNL1        0.1560
     11 C         140.5468  139.3025  159.5767 C.ar    1  UNL1        0.0347
     12 C         139.2984  139.5658  158.7878 C.ar    1  UNL1       -0.0100
     13 C         139.3295  139.4972  157.2897 C.ar    1  UNL1       -0.0020
     14 C         140.6089  139.1654  156.5804 C.ar    1  UNL1        0.0220
     15 C         141.8573  138.9022  157.3693 C.ar    1  UNL1        0.1200
     16 N         143.1367  138.5704  156.6601 N.ar    1  UNL1       -0.1856
     17 C         143.4724  137.2586  156.0145 C.ar    1  UNL1        0.2259
     18 N         144.8482  137.3696  155.4274 N.ar    1  UNL1       -0.1045
     19 N         145.3629  138.7499  155.7100 N.ar    1  UNL1       -0.0222
     20 N         144.3051  139.4920  156.4719 N.ar    1  UNL1       -0.0384
     21 C         143.0877  137.6334  160.7033 C.3     1  UNL1        0.2525
     22 O         143.0746  138.7075  159.6563 O.3     1  UNL1       -0.4699
     23 C         137.8022  144.3121  164.7615 C.3     1  UNL1        0.0769
     24 C         139.0629  144.7448  165.4495 C.3     1  UNL1        0.0437
     25 C         140.3702  144.1007  165.0941 C.ar    1  UNL1       -0.0210
     26 C         140.8327  142.8826  165.8372 C.ar    1  UNL1       -0.0040
     27 C         142.1400  142.2387  165.4818 C.ar    1  UNL1        0.0059
     28 C         142.9847  142.8128  164.3833 C.ar    1  UNL1        0.0751
     29 C         142.5222  144.0309  163.6402 C.ar    1  UNL1        0.0272
     30 C         141.2150  144.6748  163.9955 C.ar    1  UNL1       -0.0047
     31 C         143.5610  144.3689  162.6122 C.3     1  UNL1        0.2356
     32 O         144.6655  143.3597  162.7200 O.3     1  UNL1       -0.4404
     33 C         144.3094  142.3979  163.8146 C.2     1  UNL1        0.3413
     34 O         145.1332  141.2270  164.2620 O.2     1  UNL1       -0.2449
@<TRIPOS>BOND
     1    21    22    1
     2    22    10    1
     3    10    11   ar
     4    11    12   ar
     5    12     9    1
     6     9     1    1
     7     1     2    2
     8     1     3   am
     9     3     4    1
    10     4     5    1
    11     5     6    1
    12     6    23    1
    13    23    24    1
    14    24    25    1
    15    25    26   ar
    16    26    27   ar
    17    27    28   ar
    18    28    29   ar
    19    29    30   ar
    20    29    31    1
    21    31    32    1
    22    32    33    1
    23    33    34    2
    24     6     7    1
    25     7     8    1
    26    12    13   ar
    27    13    14   ar
    28    14    15   ar
    29    15    16    1
    30    16    17   ar
    31    17    18   ar
    32    18    19   ar
    33    19    20   ar
    34    15    10   ar
    35    20    16   ar
    36     8     3    1
    37    30    25   ar
    38    33    28    1
@<TRIPOS>MOLECULE
*****
 34 38 0 0 0
SMALL
GASTEIGER

@<TRIPOS>ATOM
      1 C         137.9529  142.8915  162.4628 C.2     1  UNL1        0.2301
      2 O         137.7386  144.3716  162.5790 O.2     1  UNL1       -0.2745
      3 N         138.7312  142.3349  161.3075 N.am    1  UNL1       -0.2764
      4 C         139.2950  143.2583  160.2686 C.3     1  UNL1        0.1107
      5 C         140.0732  142.7016  159.1134 C.3     1  UNL1        0.0939
      6 N         140.2875  141.2216  158.9971 N.3     1  UNL1       -0.2695
      7 C         139.7237  140.2982  160.0360 C.3     1  UNL1        0.0939
      8 C         138.9455  140.8548  161.1912 C.3     1  UNL1        0.1107
      9 C         137.3891  141.9681  163.5017 C.3     1  UNL1        0.1117
     10 C         139.9705  141.9285  166.5158 C.ar    1  UNL1        0.1560
     11 C         139.0967  142.4301  165.4045 C.ar    1  UNL1        0.0347
     12 C         138.2629  141.4666  164.6129 C.ar    1  UNL1       -0.0100
     13 C         138.3029  140.0016  164.9326 C.ar    1  UNL1       -0.0020
     14 C         139.1768  139.5001  166.0439 C.ar    1  UNL1        0.0220
     15 C         140.0105  140.4635  166.8355 C.ar    1  UNL1        0.1200
     16 N         140.8844  139.9620  167.9468 N.ar    1  UNL1       -0.1856
     17 C         142.3279  139.5726  167.8260 C.ar    1  UNL1        0.2259
     18 N         142.8038  139.1318  169.1785 N.ar    1  UNL1       -0.1045
     19 N         141.6543  139.2488  170.1351 N.ar    1  UNL1       -0.0222
     20 N         140.4681  139.7619  169.3739 N.ar    1  UNL1       -0.0384
     21 C         140.3581  143.3240  168.6728 C.3     1  UNL1        0.2525
     22 O         140.8043  142.8920  167.3074 O.3     1  UNL1       -0.4699
     23 C         141.0657  140.6649  157.8418 C.3     1  UNL1        0.0769
     24 C         142.5392  140.4197  157.9787 C.3     1  UNL1        0.0437
     25 C         143.2120  140.6148  159.3052 C.ar    1  UNL1       -0.0210
     26 C         143.8287  141.9390  159.6457 C.ar    1  UNL1       -0.0040
     27 C         144.5015  142.1341  160.9721 C.ar    1  UNL1        0.0059
     28 C         144.5574  141.0049  161.9579 C.ar    1  UNL1        0.0751
     29 C         143.9407  139.6807  161.6174 C.ar    1  UNL1        0.0272
     30 C         143.2679  139.4856  160.2910 C.ar    1  UNL1       -0.0047
     31 C         144.1502  138.7586  162.7818 C.3     1  UNL1        0.2356
     32 O         144.8965  139.5130  163.8420 O.3     1  UNL1       -0.4404
     33 C         145.1482  140.9013  163.3329 C.2     1  UNL1        0.3413
     34 O         145.8648  141.9940  164.0693 O.2     1  UNL1       -0.2449
@<TRIPOS>BOND
     1    21    22    1
     2    22    10    1
     3    10    11   ar
     4    11    12   ar
     5    12     9    1
     6     9     1    1
     7     1     2    2
     8     1     3   am
     9     3     4    1
    10     4     5    1
    11     5     6    1
    12     6    23    1
    13    23    24    1
    14    24    25    1
    15    25    26   ar
    16    26    27   ar
    17    27    28   ar
    18    28    29   ar
    19    29    30   ar
    20    29    31    1
    21    31    32    1
    22    32    33    1
    23    33    34    2
    24     6     7    1
    25     7     8    1
    26    12    13   ar
    27    13    14   ar
    28    14    15   ar
    29    15    16    1
    30    16    17   ar
    31    17    18   ar
    32    18    19   ar
    33    19    20   ar
    34    15    10   ar
    35    20    16   ar
    36     8     3    1
    37    30    25   ar
    38    33    28    1
