@<TRIPOS>MOLECULE
*****
 30 33 0 0 0
SMALL
GASTEIGER

@<TRIPOS>ATOM
      1 C         140.7526  140.1216  165.5490 C.ar    1  UNL1        0.0832
      2 C         139.3322  139.7936  165.1958 C.ar    1  UNL1        0.0125
      3 C         138.2692  139.3368  166.1504 C.3     1  UNL1        0.0340
      4 C         139.1612  140.0028  163.7203 C.ar    1  UNL1        0.0924
      5 N         140.4761  140.4599  163.1616 N.ar    1  UNL1       -0.1671
      6 N         141.4596  140.5334  164.2918 N.ar    1  UNL1       -0.2119
      7 C         143.1802  139.8362  171.0285 C.3     1  UNL1        0.0545
      8 C         142.5733  139.9075  169.6586 C.ar    1  UNL1        0.0867
      9 N         143.0755  139.0084  168.5681 N.ar    1  UNL1       -0.2458
     10 C         142.4686  139.0797  167.1982 C.ar    1  UNL1        0.1000
     11 C         141.3595  140.0502  166.9189 C.ar    1  UNL1        0.0389
     12 C         140.8574  140.9494  168.0094 C.ar    1  UNL1        0.0339
     13 C         141.4643  140.8780  169.3793 C.ar    1  UNL1        0.1536
     14 F         140.9621  141.7772  170.4699 F       1  UNL1       -0.2029
     15 C         142.8976  140.9461  164.1837 C.ar    1  UNL1        0.1743
     16 N         143.9476  139.9272  163.8527 N.ar    1  UNL1       -0.2243
     17 C         145.3856  140.3399  163.7446 C.ar    1  UNL1        0.1006
     18 C         145.7737  141.7716  163.9675 C.ar    1  UNL1        0.0217
     19 C         144.7239  142.7905  164.2984 C.ar    1  UNL1        0.0161
     20 C         143.2858  142.3777  164.4065 C.ar    1  UNL1        0.0934
     21 CL        142.2359  143.3967  164.7375 Cl      1  UNL1       -0.0790
     22 C         137.8974  139.7917  162.9405 C.3     1  UNL1        0.1166
     23 N         137.0149  140.9594  162.6122 N.3     1  UNL1       -0.2934
     24 H         136.1263  140.7995  163.0867 H       1  UNL1        0.1236
     25 C         137.4500  142.3509  162.9650 C.3     1  UNL1        0.0571
     26 C         137.3843  142.9766  164.3267 C.3     1  UNL1        0.0186
     27 C         137.9209  144.3733  164.2213 C.3     1  UNL1        0.0367
     28 C         138.3183  144.6109  162.7946 C.3     1  UNL1        0.1624
     29 F         138.9039  145.8762  162.2414 F       1  UNL1       -0.2372
     30 C         138.0273  143.3609  162.0181 C.3     1  UNL1        0.0510
@<TRIPOS>BOND
     1     7     8    1
     2     8     9   ar
     3     9    10   ar
     4    10    11   ar
     5    11     1    1
     6     1     2   ar
     7     2     3    1
     8     2     4   ar
     9     4    22    1
    10    22    23    1
    11    25    23    1
    12    25    26    1
    13    26    27    1
    14    27    28    1
    15    28    29    1
    16    28    30    1
    17     4     5   ar
    18     5     6   ar
    19     6    15    1
    20    15    16   ar
    21    16    17   ar
    22    17    18   ar
    23    18    19   ar
    24    19    20   ar
    25    20    21    1
    26    11    12   ar
    27    12    13   ar
    28    13    14    1
    29    13     8   ar
    30     6     1   ar
    31    20    15   ar
    32    30    25    1
    33    23    24    1
@<TRIPOS>MOLECULE
*****
 30 33 0 0 0
SMALL
GASTEIGER

@<TRIPOS>ATOM
      1 C         140.6951  140.0373  165.5074 C.ar    1  UNL1        0.0832
      2 C         139.4228  139.3293  165.1467 C.ar    1  UNL1        0.0125
      3 C         138.2758  139.0511  166.0724 C.3     1  UNL1        0.0340
      4 C         139.4989  138.9485  163.6979 C.ar    1  UNL1        0.0924
      5 N         140.8183  139.4210  163.1631 N.ar    1  UNL1       -0.1671
      6 N         141.5576  140.0939  164.2814 N.ar    1  UNL1       -0.2119
      7 C         142.0898  142.2533  170.9059 C.3     1  UNL1        0.0545
      8 C         141.7411  141.6993  169.5563 C.ar    1  UNL1        0.0867
      9 N         142.2963  140.3749  169.1229 N.ar    1  UNL1       -0.2458
     10 C         141.9476  139.8209  167.7733 C.ar    1  UNL1        0.1000
     11 C         141.0438  140.5913  166.8570 C.ar    1  UNL1        0.0389
     12 C         140.4886  141.9156  167.2904 C.ar    1  UNL1        0.0339
     13 C         140.8373  142.4696  168.6400 C.ar    1  UNL1        0.1536
     14 F         140.2820  143.7940  169.0734 F       1  UNL1       -0.2029
     15 C         142.9201  140.7145  164.1898 C.ar    1  UNL1        0.1743
     16 N         144.1424  139.8449  164.1970 N.ar    1  UNL1       -0.2243
     17 C         145.5049  140.4655  164.1054 C.ar    1  UNL1        0.1006
     18 C         145.6452  141.9556  164.0066 C.ar    1  UNL1        0.0217
     19 C         144.4230  142.8252  163.9995 C.ar    1  UNL1        0.0161
     20 C         143.0605  142.2046  164.0911 C.ar    1  UNL1        0.0934
     21 CL        141.8383  143.0743  164.0840 Cl      1  UNL1       -0.0790
     22 C         138.4413  138.2225  162.9204 C.3     1  UNL1        0.1166
     23 N         137.5331  138.9822  161.9996 N.3     1  UNL1       -0.2934
     24 H         136.5860  138.8695  162.3611 H       1  UNL1        0.1236
     25 C         137.7423  140.4519  161.7841 C.3     1  UNL1        0.0571
     26 C         138.3424  141.0876  160.5652 C.3     1  UNL1        0.0186
     27 C         138.3591  142.5724  160.7775 C.3     1  UNL1        0.0367
     28 C         137.7694  142.8544  162.1275 C.3     1  UNL1        0.1624
     29 F         137.5920  144.2090  162.7468 F       1  UNL1       -0.2372
     30 C         137.3882  141.5437  162.7497 C.3     1  UNL1        0.0510
@<TRIPOS>BOND
     1     7     8    1
     2     8     9   ar
     3     9    10   ar
     4    10    11   ar
     5    11     1    1
     6     1     2   ar
     7     2     3    1
     8     2     4   ar
     9     4    22    1
    10    22    23    1
    11    25    23    1
    12    25    26    1
    13    26    27    1
    14    27    28    1
    15    28    29    1
    16    28    30    1
    17     4     5   ar
    18     5     6   ar
    19     6    15    1
    20    15    16   ar
    21    16    17   ar
    22    17    18   ar
    23    18    19   ar
    24    19    20   ar
    25    20    21    1
    26    11    12   ar
    27    12    13   ar
    28    13    14    1
    29    13     8   ar
    30     6     1   ar
    31    20    15   ar
    32    30    25    1
    33    23    24    1
@<TRIPOS>MOLECULE
*****
 30 33 0 0 0
SMALL
GASTEIGER

@<TRIPOS>ATOM
      1 C         140.4874  141.2492  165.5461 C.ar    1  UNL1        0.0832
      2 C         139.4793  140.1528  165.3675 C.ar    1  UNL1        0.0125
      3 C         138.8800  139.3194  166.4612 C.3     1  UNL1        0.0340
      4 C         139.1758  140.0362  163.9031 C.ar    1  UNL1        0.0924
      5 N         139.9963  141.0605  163.1767 N.ar    1  UNL1       -0.1671
      6 N         140.8068  141.8102  164.1922 N.ar    1  UNL1       -0.2119
      7 C         142.8301  143.0707  170.7608 C.3     1  UNL1        0.0545
      8 C         142.2444  142.6153  169.4572 C.ar    1  UNL1        0.0867
      9 N         142.9385  141.5570  168.6521 N.ar    1  UNL1       -0.2458
     10 C         142.3528  141.1016  167.3484 C.ar    1  UNL1        0.1000
     11 C         141.0731  141.7046  166.8498 C.ar    1  UNL1        0.0389
     12 C         140.3790  142.7629  167.6549 C.ar    1  UNL1        0.0339
     13 C         140.9647  143.2182  168.9586 C.ar    1  UNL1        0.1536
     14 F         140.2705  144.2766  169.7637 F       1  UNL1       -0.2029
     15 C         141.7681  142.9251  163.9041 C.ar    1  UNL1        0.1743
     16 N         143.1628  142.6138  163.4480 N.ar    1  UNL1       -0.2243
     17 C         144.1241  143.7287  163.1600 C.ar    1  UNL1        0.1006
     18 C         143.6908  145.1548  163.3281 C.ar    1  UNL1        0.0217
     19 C         142.2961  145.4661  163.7842 C.ar    1  UNL1        0.0161
     20 C         141.3348  144.3512  164.0722 C.ar    1  UNL1        0.0934
     21 CL        139.9401  144.6625  164.5283 Cl      1  UNL1       -0.0790
     22 C         138.2197  139.0657  163.2754 C.3     1  UNL1        0.1166
     23 N         138.7424  137.8999  162.4896 N.3     1  UNL1       -0.2934
     24 H         138.0703  137.7228  161.7431 H       1  UNL1        0.1236
     25 C         140.0949  137.9756  161.8454 C.3     1  UNL1        0.0571
     26 C         140.3845  138.4671  160.4581 C.3     1  UNL1        0.0186
     27 C         141.8639  138.3684  160.2307 C.3     1  UNL1        0.0367
     28 C         142.4887  137.8159  161.4775 C.3     1  UNL1        0.1624
     29 F         143.9501  137.5524  161.6892 F       1  UNL1       -0.2372
     30 C         141.3954  137.5732  162.4755 C.3     1  UNL1        0.0510
@<TRIPOS>BOND
     1     7     8    1
     2     8     9   ar
     3     9    10   ar
     4    10    11   ar
     5    11     1    1
     6     1     2   ar
     7     2     3    1
     8     2     4   ar
     9     4    22    1
    10    22    23    1
    11    25    23    1
    12    25    26    1
    13    26    27    1
    14    27    28    1
    15    28    29    1
    16    28    30    1
    17     4     5   ar
    18     5     6   ar
    19     6    15    1
    20    15    16   ar
    21    16    17   ar
    22    17    18   ar
    23    18    19   ar
    24    19    20   ar
    25    20    21    1
    26    11    12   ar
    27    12    13   ar
    28    13    14    1
    29    13     8   ar
    30     6     1   ar
    31    20    15   ar
    32    30    25    1
    33    23    24    1
@<TRIPOS>MOLECULE
*****
 30 33 0 0 0
SMALL
GASTEIGER

@<TRIPOS>ATOM
      1 C         141.8169  140.4852  165.6467 C.ar    1  UNL1        0.0832
      2 C         142.7453  139.4191  165.1451 C.ar    1  UNL1        0.0125
      3 C         143.5683  138.4959  165.9939 C.3     1  UNL1        0.0340
      4 C         142.7063  139.4384  163.6457 C.ar    1  UNL1        0.0924
      5 N         141.7538  140.5163  163.2206 N.ar    1  UNL1       -0.1671
      6 N         141.2042  141.1633  164.4572 N.ar    1  UNL1       -0.2119
      7 C         140.7430  141.8053  171.4003 C.3     1  UNL1        0.0545
      8 C         141.0115  141.4753  169.9619 C.ar    1  UNL1        0.0867
      9 N         142.3149  141.8691  169.3327 N.ar    1  UNL1       -0.2458
     10 C         142.5834  141.5391  167.8943 C.ar    1  UNL1        0.1000
     11 C         141.5484  140.8152  167.0851 C.ar    1  UNL1        0.0389
     12 C         140.2450  140.4215  167.7142 C.ar    1  UNL1        0.0339
     13 C         139.9765  140.7515  169.1526 C.ar    1  UNL1        0.1536
     14 F         138.6730  140.3577  169.7818 F       1  UNL1       -0.2029
     15 C         140.2153  142.2905  164.4974 C.ar    1  UNL1        0.1743
     16 N         140.6971  143.7110  164.5032 N.ar    1  UNL1       -0.2243
     17 C         139.7082  144.8382  164.5434 C.ar    1  UNL1        0.1006
     18 C         138.2376  144.5449  164.5777 C.ar    1  UNL1        0.0217
     19 C         137.7558  143.1244  164.5718 C.ar    1  UNL1        0.0161
     20 C         138.7447  141.9972  164.5317 C.ar    1  UNL1        0.0934
     21 CL        138.2628  140.5767  164.5258 Cl      1  UNL1       -0.0790
     22 C         143.4834  138.5377  162.7319 C.3     1  UNL1        0.1166
     23 N         142.7609  137.6039  161.8068 N.3     1  UNL1       -0.2934
     24 H         142.7322  136.6951  162.2692 H       1  UNL1        0.1236
     25 C         141.3588  137.9136  161.3732 C.3     1  UNL1        0.0571
     26 C         140.9559  138.5301  160.0665 C.3     1  UNL1        0.0186
     27 C         139.4615  138.6588  160.0559 C.3     1  UNL1        0.0367
     28 C         138.9407  138.1218  161.3560 C.3     1  UNL1        0.1624
     29 F         137.5003  138.0567  161.7695 F       1  UNL1       -0.2372
     30 C         140.1134  137.6612  162.1703 C.3     1  UNL1        0.0510
@<TRIPOS>BOND
     1     7     8    1
     2     8     9   ar
     3     9    10   ar
     4    10    11   ar
     5    11     1    1
     6     1     2   ar
     7     2     3    1
     8     2     4   ar
     9     4    22    1
    10    22    23    1
    11    25    23    1
    12    25    26    1
    13    26    27    1
    14    27    28    1
    15    28    29    1
    16    28    30    1
    17     4     5   ar
    18     5     6   ar
    19     6    15    1
    20    15    16   ar
    21    16    17   ar
    22    17    18   ar
    23    18    19   ar
    24    19    20   ar
    25    20    21    1
    26    11    12   ar
    27    12    13   ar
    28    13    14    1
    29    13     8   ar
    30     6     1   ar
    31    20    15   ar
    32    30    25    1
    33    23    24    1
@<TRIPOS>MOLECULE
*****
 30 33 0 0 0
SMALL
GASTEIGER

@<TRIPOS>ATOM
      1 C         139.5936  140.5435  164.6822 C.ar    1  UNL1        0.0832
      2 C         139.2958  139.6458  165.8464 C.ar    1  UNL1        0.0125
      3 C         138.8749  138.2083  165.7662 C.3     1  UNL1        0.0340
      4 C         139.4929  140.4379  167.1049 C.ar    1  UNL1        0.0924
      5 N         139.9125  141.8252  166.7185 N.ar    1  UNL1       -0.1671
      6 N         139.9747  141.8905  165.2212 N.ar    1  UNL1       -0.2119
      7 C         139.3100  139.0152  158.8870 C.3     1  UNL1        0.0545
      8 C         139.3809  139.3973  160.3358 C.ar    1  UNL1        0.0867
      9 N         140.7093  139.4673  161.0288 N.ar    1  UNL1       -0.2458
     10 C         140.7802  139.8494  162.4776 C.ar    1  UNL1        0.1000
     11 C         139.5227  140.1615  163.2334 C.ar    1  UNL1        0.0389
     12 C         138.1943  140.0914  162.5404 C.ar    1  UNL1        0.0339
     13 C         138.1234  139.7094  161.0916 C.ar    1  UNL1        0.1536
     14 F         136.7948  139.6393  160.3986 F       1  UNL1       -0.2029
     15 C         140.3518  143.0918  164.4060 C.ar    1  UNL1        0.1743
     16 N         141.7934  143.3619  164.0908 N.ar    1  UNL1       -0.2243
     17 C         142.1705  144.5633  163.2756 C.ar    1  UNL1        0.1006
     18 C         141.1062  145.4946  162.7757 C.ar    1  UNL1        0.0217
     19 C         139.6648  145.2245  163.0908 C.ar    1  UNL1        0.0161
     20 C         139.2877  144.0231  163.9060 C.ar    1  UNL1        0.0934
     21 CL        137.8461  143.7531  164.2212 Cl      1  UNL1       -0.0790
     22 C         139.3037  139.9315  168.5041 C.3     1  UNL1        0.1166
     23 N         140.4923  139.7349  169.3977 N.3     1  UNL1       -0.2934
     24 H         141.0495  138.9863  168.9860 H       1  UNL1        0.1236
     25 C         141.4286  140.8765  169.6623 C.3     1  UNL1        0.0571
     26 C         141.0436  142.2311  170.1787 C.3     1  UNL1        0.0186
     27 C         142.2914  143.0557  170.2924 C.3     1  UNL1        0.0367
     28 C         143.4477  142.2107  169.8463 C.3     1  UNL1        0.1624
     29 F         144.8849  142.6376  169.7981 F       1  UNL1       -0.2372
     30 C         142.9145  140.8638  169.4568 C.3     1  UNL1        0.0510
@<TRIPOS>BOND
     1     7     8    1
     2     8     9   ar
     3     9    10   ar
     4    10    11   ar
     5    11     1    1
     6     1     2   ar
     7     2     3    1
     8     2     4   ar
     9     4    22    1
    10    22    23    1
    11    25    23    1
    12    25    26    1
    13    26    27    1
    14    27    28    1
    15    28    29    1
    16    28    30    1
    17     4     5   ar
    18     5     6   ar
    19     6    15    1
    20    15    16   ar
    21    16    17   ar
    22    17    18   ar
    23    18    19   ar
    24    19    20   ar
    25    20    21    1
    26    11    12   ar
    27    12    13   ar
    28    13    14    1
    29    13     8   ar
    30     6     1   ar
    31    20    15   ar
    32    30    25    1
    33    23    24    1
@<TRIPOS>MOLECULE
*****
 30 33 0 0 0
SMALL
GASTEIGER

@<TRIPOS>ATOM
      1 C         140.6712  140.2286  165.0756 C.ar    1  UNL1        0.0832
      2 C         139.4009  139.4875  164.7802 C.ar    1  UNL1        0.0125
      3 C         138.2294  139.3422  165.7056 C.3     1  UNL1        0.0340
      4 C         139.5079  138.9172  163.3970 C.ar    1  UNL1        0.0924
      5 N         140.8442  139.3058  162.8374 N.ar    1  UNL1       -0.1671
      6 N         141.5632  140.1163  163.8748 N.ar    1  UNL1       -0.2119
      7 C         141.9581  143.1324  170.1659 C.3     1  UNL1        0.0545
      8 C         141.6364  142.4065  168.8933 C.ar    1  UNL1        0.0867
      9 N         140.6584  142.9956  167.9205 N.ar    1  UNL1       -0.2458
     10 C         140.3367  142.2696  166.6479 C.ar    1  UNL1        0.1000
     11 C         140.9929  140.9546  166.3481 C.ar    1  UNL1        0.0389
     12 C         141.9709  140.3655  167.3210 C.ar    1  UNL1        0.0339
     13 C         142.2926  141.0914  168.5936 C.ar    1  UNL1        0.1536
     14 F         143.2706  140.5022  169.5664 F       1  UNL1       -0.2029
     15 C         142.9335  140.7103  163.7359 C.ar    1  UNL1        0.1743
     16 N         143.1122  142.0314  163.0482 N.ar    1  UNL1       -0.2243
     17 C         144.4826  142.6254  162.9093 C.ar    1  UNL1        0.1006
     18 C         145.6743  141.8983  163.4580 C.ar    1  UNL1        0.0217
     19 C         145.4956  140.5772  164.1456 C.ar    1  UNL1        0.0161
     20 C         144.1253  139.9833  164.2845 C.ar    1  UNL1        0.0934
     21 CL        143.9467  138.6621  164.9722 Cl      1  UNL1       -0.0790
     22 C         138.4621  138.1014  162.6964 C.3     1  UNL1        0.1166
     23 N         137.4801  138.7687  161.7796 N.3     1  UNL1       -0.2934
     24 H         136.6196  138.8959  162.3122 H       1  UNL1        0.1236
     25 C         137.8100  140.0971  161.1660 C.3     1  UNL1        0.0571
     26 C         137.7789  141.4236  161.8656 C.3     1  UNL1        0.0186
     27 C         138.1787  142.4785  160.8770 C.3     1  UNL1        0.0367
     28 C         138.4569  141.8040  159.5664 C.3     1  UNL1        0.1624
     29 F         138.8873  142.4822  158.2996 F       1  UNL1       -0.2372
     30 C         138.2290  140.3321  159.7450 C.3     1  UNL1        0.0510
@<TRIPOS>BOND
     1     7     8    1
     2     8     9   ar
     3     9    10   ar
     4    10    11   ar
     5    11     1    1
     6     1     2   ar
     7     2     3    1
     8     2     4   ar
     9     4    22    1
    10    22    23    1
    11    25    23    1
    12    25    26    1
    13    26    27    1
    14    27    28    1
    15    28    29    1
    16    28    30    1
    17     4     5   ar
    18     5     6   ar
    19     6    15    1
    20    15    16   ar
    21    16    17   ar
    22    17    18   ar
    23    18    19   ar
    24    19    20   ar
    25    20    21    1
    26    11    12   ar
    27    12    13   ar
    28    13    14    1
    29    13     8   ar
    30     6     1   ar
    31    20    15   ar
    32    30    25    1
    33    23    24    1
@<TRIPOS>MOLECULE
*****
 30 33 0 0 0
SMALL
GASTEIGER

@<TRIPOS>ATOM
      1 C         141.0417  140.1042  165.5052 C.ar    1  UNL1        0.0832
      2 C         141.7901  138.9449  164.9171 C.ar    1  UNL1        0.0125
      3 C         142.5941  137.9353  165.6815 C.3     1  UNL1        0.0340
      4 C         141.5933  138.9723  163.4303 C.ar    1  UNL1        0.0924
      5 N         140.7233  140.1486  163.0995 N.ar    1  UNL1       -0.1671
      6 N         140.3824  140.8482  164.3819 N.ar    1  UNL1       -0.2119
      7 C         140.7386  141.5176  171.3285 C.3     1  UNL1        0.0545
      8 C         140.8143  141.1642  169.8726 C.ar    1  UNL1        0.0867
      9 N         142.0706  141.4357  169.0994 N.ar    1  UNL1       -0.2458
     10 C         142.1464  141.0824  167.6436 C.ar    1  UNL1        0.1000
     11 C         140.9659  140.4576  166.9610 C.ar    1  UNL1        0.0389
     12 C         139.7096  140.1861  167.7343 C.ar    1  UNL1        0.0339
     13 C         139.6338  140.5394  169.1901 C.ar    1  UNL1        0.1536
     14 F         138.3775  140.2679  169.9633 F       1  UNL1       -0.2029
     15 C         139.5316  142.0761  164.5171 C.ar    1  UNL1        0.1743
     16 N         138.0399  141.9718  164.3979 N.ar    1  UNL1       -0.2243
     17 C         137.1890  143.1997  164.5331 C.ar    1  UNL1        0.1006
     18 C         137.8298  144.5319  164.7876 C.ar    1  UNL1        0.0217
     19 C         139.3214  144.6361  164.9068 C.ar    1  UNL1        0.0161
     20 C         140.1722  143.4082  164.7715 C.ar    1  UNL1        0.0934
     21 CL        141.6639  143.5126  164.8908 Cl      1  UNL1       -0.0790
     22 C         142.1660  137.9951  162.4470 C.3     1  UNL1        0.1166
     23 N         143.4373  138.3202  161.7202 N.3     1  UNL1       -0.2934
     24 H         143.2361  138.2375  160.7236 H       1  UNL1        0.1236
     25 C         144.0954  139.6532  161.9199 C.3     1  UNL1        0.0571
     26 C         144.1249  140.7793  160.9294 C.3     1  UNL1        0.0186
     27 C         144.8874  141.9162  161.5426 C.3     1  UNL1        0.0367
     28 C         145.3292  141.4928  162.9121 C.3     1  UNL1        0.1624
     29 F         146.1214  142.3224  163.8787 F       1  UNL1       -0.2372
     30 C         144.8398  140.0941  163.1453 C.3     1  UNL1        0.0510
@<TRIPOS>BOND
     1     7     8    1
     2     8     9   ar
     3     9    10   ar
     4    10    11   ar
     5    11     1    1
     6     1     2   ar
     7     2     3    1
     8     2     4   ar
     9     4    22    1
    10    22    23    1
    11    25    23    1
    12    25    26    1
    13    26    27    1
    14    27    28    1
    15    28    29    1
    16    28    30    1
    17     4     5   ar
    18     5     6   ar
    19     6    15    1
    20    15    16   ar
    21    16    17   ar
    22    17    18   ar
    23    18    19   ar
    24    19    20   ar
    25    20    21    1
    26    11    12   ar
    27    12    13   ar
    28    13    14    1
    29    13     8   ar
    30     6     1   ar
    31    20    15   ar
    32    30    25    1
    33    23    24    1
@<TRIPOS>MOLECULE
*****
 30 33 0 0 0
SMALL
GASTEIGER

@<TRIPOS>ATOM
      1 C         142.6252  141.4740  165.6678 C.ar    1  UNL1        0.0832
      2 C         143.5988  142.4475  165.0724 C.ar    1  UNL1        0.0125
      3 C         144.4336  143.4356  165.8318 C.3     1  UNL1        0.0340
      4 C         143.5911  142.2593  163.5842 C.ar    1  UNL1        0.0924
      5 N         142.6127  141.1696  163.2599 N.ar    1  UNL1       -0.1671
      6 N         142.0158  140.6843  164.5476 N.ar    1  UNL1       -0.2119
      7 C         141.3862  140.8491  171.5051 C.3     1  UNL1        0.0545
      8 C         141.6959  141.0053  170.0457 C.ar    1  UNL1        0.0867
      9 N         141.3243  142.2709  169.3314 N.ar    1  UNL1       -0.2458
     10 C         141.6341  142.4271  167.8721 C.ar    1  UNL1        0.1000
     11 C         142.3155  141.3178  167.1271 C.ar    1  UNL1        0.0389
     12 C         142.6871  140.0523  167.8414 C.ar    1  UNL1        0.0339
     13 C         142.3774  139.8961  169.3007 C.ar    1  UNL1        0.1536
     14 F         142.7490  138.6304  170.0150 F       1  UNL1       -0.2029
     15 C         140.9896  139.5996  164.6900 C.ar    1  UNL1        0.1743
     16 N         141.3824  138.1651  164.4945 N.ar    1  UNL1       -0.2243
     17 C         140.3561  137.0804  164.6370 C.ar    1  UNL1        0.1006
     18 C         138.9372  137.4301  164.9749 C.ar    1  UNL1        0.0217
     19 C         138.5444  138.8645  165.1704 C.ar    1  UNL1        0.0161
     20 C         139.5706  139.9492  165.0279 C.ar    1  UNL1        0.0934
     21 CL        139.1778  141.3836  165.2234 Cl      1  UNL1       -0.0790
     22 C         144.4168  143.0263  162.5943 C.3     1  UNL1        0.1166
     23 N         143.9188  144.3350  162.0564 N.3     1  UNL1       -0.2934
     24 H         144.3779  144.4775  161.1568 H       1  UNL1        0.1236
     25 C         142.4505  144.5432  161.8310 C.3     1  UNL1        0.0571
     26 C         141.7096  144.2860  160.5524 C.3     1  UNL1        0.0186
     27 C         140.2665  144.6290  160.7758 C.3     1  UNL1        0.0367
     28 C         140.1156  145.0982  162.1925 C.3     1  UNL1        0.1624
     29 F         138.8390  145.5424  162.8429 F       1  UNL1       -0.2372
     30 C         141.4654  145.0452  162.8447 C.3     1  UNL1        0.0510
@<TRIPOS>BOND
     1     7     8    1
     2     8     9   ar
     3     9    10   ar
     4    10    11   ar
     5    11     1    1
     6     1     2   ar
     7     2     3    1
     8     2     4   ar
     9     4    22    1
    10    22    23    1
    11    25    23    1
    12    25    26    1
    13    26    27    1
    14    27    28    1
    15    28    29    1
    16    28    30    1
    17     4     5   ar
    18     5     6   ar
    19     6    15    1
    20    15    16   ar
    21    16    17   ar
    22    17    18   ar
    23    18    19   ar
    24    19    20   ar
    25    20    21    1
    26    11    12   ar
    27    12    13   ar
    28    13    14    1
    29    13     8   ar
    30     6     1   ar
    31    20    15   ar
    32    30    25    1
    33    23    24    1
@<TRIPOS>MOLECULE
*****
 30 33 0 0 0
SMALL
GASTEIGER

@<TRIPOS>ATOM
      1 C         141.2559  140.4514  160.8585 C.ar    1  UNL1        0.0832
      2 C         139.7883  140.1630  160.7454 C.ar    1  UNL1        0.0125
      3 C         139.0401  139.8822  159.4760 C.3     1  UNL1        0.0340
      4 C         139.2000  140.2046  162.1246 C.ar    1  UNL1        0.0924
      5 N         140.3041  140.5188  163.0901 N.ar    1  UNL1       -0.1671
      6 N         141.5747  140.6713  162.3076 N.ar    1  UNL1       -0.2119
      7 C         145.1649  140.6845  156.3125 C.3     1  UNL1        0.0545
      8 C         144.1876  140.6262  157.4490 C.ar    1  UNL1        0.0867
      9 N         143.9087  139.3203  158.1321 N.ar    1  UNL1       -0.2458
     10 C         142.9315  139.2620  159.2686 C.ar    1  UNL1        0.1000
     11 C         142.2332  140.5097  159.7220 C.ar    1  UNL1        0.0389
     12 C         142.5121  141.8156  159.0389 C.ar    1  UNL1        0.0339
     13 C         143.4893  141.8739  157.9024 C.ar    1  UNL1        0.1536
     14 F         143.7682  143.1800  157.2193 F       1  UNL1       -0.2029
     15 C         142.9268  140.9881  162.8747 C.ar    1  UNL1        0.1743
     16 N         143.8020  139.8836  163.3890 N.ar    1  UNL1       -0.2243
     17 C         145.1540  140.2004  163.9561 C.ar    1  UNL1        0.1006
     18 C         145.6309  141.6216  164.0089 C.ar    1  UNL1        0.0217
     19 C         144.7558  142.7259  163.4947 C.ar    1  UNL1        0.0161
     20 C         143.4038  142.4092  162.9276 C.ar    1  UNL1        0.0934
     21 CL        142.5287  143.5137  162.4133 Cl      1  UNL1       -0.0790
     22 C         137.7604  139.9728  162.4765 C.3     1  UNL1        0.1166
     23 N         136.9105  141.1150  162.9486 N.3     1  UNL1       -0.2934
     24 H         136.4796  140.8191  163.8245 H       1  UNL1        0.1236
     25 C         137.5312  142.4566  163.2029 C.3     1  UNL1        0.0571
     26 C         137.7973  143.0642  164.5483 C.3     1  UNL1        0.0186
     27 C         138.4254  144.4094  164.3333 C.3     1  UNL1        0.0367
     28 C         138.5473  144.6332  162.8551 C.3     1  UNL1        0.1624
     29 F         139.1212  145.8501  162.1920 F       1  UNL1       -0.2372
     30 C         137.9947  143.4263  162.1564 C.3     1  UNL1        0.0510
@<TRIPOS>BOND
     1     7     8    1
     2     8     9   ar
     3     9    10   ar
     4    10    11   ar
     5    11     1    1
     6     1     2   ar
     7     2     3    1
     8     2     4   ar
     9     4    22    1
    10    22    23    1
    11    25    23    1
    12    25    26    1
    13    26    27    1
    14    27    28    1
    15    28    29    1
    16    28    30    1
    17     4     5   ar
    18     5     6   ar
    19     6    15    1
    20    15    16   ar
    21    16    17   ar
    22    17    18   ar
    23    18    19   ar
    24    19    20   ar
    25    20    21    1
    26    11    12   ar
    27    12    13   ar
    28    13    14    1
    29    13     8   ar
    30     6     1   ar
    31    20    15   ar
    32    30    25    1
    33    23    24    1
