@<TRIPOS>MOLECULE
*****
 33 35 0 0 0
SMALL
GASTEIGER

@<TRIPOS>ATOM
      1 N         141.2381  140.2788  163.9350 N.pl3   1  UNL1       -0.3046
      2 C         142.5762  140.9077  164.1873 C.3     1  UNL1        0.1081
      3 C         143.4885  141.2169  163.0373 C.3     1  UNL1        0.0938
      4 N         143.0624  140.8971  161.6351 N.3     1  UNL1       -0.2698
      5 C         141.7242  140.2681  161.3829 C.3     1  UNL1        0.0938
      6 C         140.8121  139.9589  162.5328 C.3     1  UNL1        0.1081
      7 C         139.6150  140.3419  167.5560 C.ar    1  UNL1        0.0515
      8 C         138.5016  139.3514  167.3849 C.ar    1  UNL1        0.0148
      9 C         138.3004  138.6700  166.0638 C.ar    1  UNL1        0.0025
     10 C         139.2125  138.9791  164.9139 C.ar    1  UNL1        0.0146
     11 C         140.3259  139.9696  165.0850 C.ar    1  UNL1        0.0492
     12 C         140.5271  140.6510  166.4061 C.ar    1  UNL1        0.0292
     13 C         141.0373  141.1801  171.1649 C.3     1  UNL1        0.0949
     14 C         140.8361  140.4987  169.8439 C.2     1  UNL1        0.2266
     15 O         141.6548  139.2928  169.4896 O.2     1  UNL1       -0.2748
     16 N         139.8162  141.0232  168.8771 N.am    1  UNL1       -0.2839
     17 H         139.2788  141.8147  169.1097 H       1  UNL1        0.1549
     18 C         143.9746  141.2062  160.4852 C.3     1  UNL1        0.0722
     19 C         144.1375  142.6218  160.0167 C.3     1  UNL1        0.0188
     20 C         143.1650  143.2031  159.0335 C.3     1  UNL1        0.0202
     21 C         141.8371  143.7162  159.5061 C.3     1  UNL1        0.0911
     22 N         141.7201  145.1125  160.0414 N.3     1  UNL1       -0.1833
     23 H         141.5641  145.7232  159.2395 H       1  UNL1        0.1484
     24 S         140.6598  145.4427  161.0498 S.O2    1  UNL1        0.0407
     25 O         139.7246  145.8252  159.9412 O.2     1  UNL1       -0.1575
     26 O         141.5950  145.0603  162.1584 O.2     1  UNL1       -0.1575
     27 C         139.5995  145.7729  162.0581 C.3     1  UNL1        0.1688
     28 C         138.9922  144.6839  162.8919 C.3     1  UNL1        0.0253
     29 C         138.3764  143.4872  162.2295 C.3     1  UNL1        0.0018
     30 C         137.7691  142.3981  163.0632 C.3     1  UNL1        0.0001
     31 C         137.7774  142.5058  164.5593 C.3     1  UNL1        0.0000
     32 C         138.3932  143.7025  165.2217 C.3     1  UNL1        0.0001
     33 C         139.0005  144.7916  164.3880 C.3     1  UNL1        0.0018
@<TRIPOS>BOND
     1    13    14    1
     2    14    15    2
     3    14    16   am
     4    16     7    1
     5     7     8   ar
     6     8     9   ar
     7     9    10   ar
     8    10    11   ar
     9    11     1    1
    10     1     2    1
    11     2     3    1
    12     3     4    1
    13     4    18    1
    14    18    19    1
    15    19    20    1
    16    20    21    1
    17    21    22    1
    18    22    24    1
    19    24    25    2
    20    24    26    2
    21    24    27    1
    22    27    28    1
    23    28    29    1
    24    29    30    1
    25    30    31    1
    26    31    32    1
    27    32    33    1
    28     4     5    1
    29     5     6    1
    30    11    12   ar
    31    12     7   ar
    32     6     1    1
    33    33    28    1
    34    16    17    1
    35    22    23    1
@<TRIPOS>MOLECULE
*****
 33 35 0 0 0
SMALL
GASTEIGER

@<TRIPOS>ATOM
      1 N         139.5977  142.6453  164.4815 N.pl3   1  UNL1       -0.3046
      2 C         140.9609  143.0945  164.0459 C.3     1  UNL1        0.1081
      3 C         141.1006  144.1624  163.0017 C.3     1  UNL1        0.0938
      4 N         139.8771  144.7811  162.3933 N.3     1  UNL1       -0.2698
      5 C         138.5138  144.3318  162.8290 C.3     1  UNL1        0.0938
      6 C         138.3741  143.2640  163.8730 C.3     1  UNL1        0.1081
      7 C         140.0746  140.6190  167.8604 C.ar    1  UNL1        0.0515
      8 C         139.1785  139.4417  167.6138 C.ar    1  UNL1        0.0148
      9 C         138.4221  139.3322  166.3231 C.ar    1  UNL1        0.0025
     10 C         138.5618  140.4000  165.2790 C.ar    1  UNL1        0.0146
     11 C         139.4579  141.5774  165.5256 C.ar    1  UNL1        0.0492
     12 C         140.2143  141.6868  166.8163 C.ar    1  UNL1        0.0292
     13 C         142.9358  140.1954  170.5776 C.3     1  UNL1        0.0949
     14 C         142.1795  140.0859  169.2870 C.2     1  UNL1        0.2266
     15 O         142.7717  139.3337  168.1321 O.2     1  UNL1       -0.2748
     16 N         140.8310  140.7285  169.1511 N.am    1  UNL1       -0.2839
     17 H         140.4423  141.2222  169.9090 H       1  UNL1        0.1549
     18 C         140.0168  145.8489  161.3492 C.3     1  UNL1        0.0722
     19 C         140.6611  145.5307  160.0326 C.3     1  UNL1        0.0188
     20 C         140.0675  144.4801  159.1416 C.3     1  UNL1        0.0202
     21 C         140.4258  143.0373  159.3415 C.3     1  UNL1        0.0911
     22 N         139.7836  142.2511  160.4457 N.3     1  UNL1       -0.1833
     23 H         138.7815  142.2407  160.2554 H       1  UNL1        0.1484
     24 S         140.1928  140.8288  160.6899 S.O2    1  UNL1        0.0407
     25 O         138.9738  140.6240  161.5396 O.2     1  UNL1       -0.1575
     26 O         141.4118  141.0335  159.8401 O.2     1  UNL1       -0.1575
     27 C         140.6019  139.4065  160.9340 C.3     1  UNL1        0.1688
     28 C         140.9723  138.9595  162.3171 C.3     1  UNL1        0.0253
     29 C         140.4005  137.6891  162.8731 C.3     1  UNL1        0.0018
     30 C         140.7710  137.2421  164.2562 C.3     1  UNL1        0.0001
     31 C         141.7132  138.0655  165.0833 C.3     1  UNL1        0.0000
     32 C         142.2850  139.3360  164.5274 C.3     1  UNL1        0.0001
     33 C         141.9146  139.7830  163.1443 C.3     1  UNL1        0.0018
@<TRIPOS>BOND
     1    13    14    1
     2    14    15    2
     3    14    16   am
     4    16     7    1
     5     7     8   ar
     6     8     9   ar
     7     9    10   ar
     8    10    11   ar
     9    11     1    1
    10     1     2    1
    11     2     3    1
    12     3     4    1
    13     4    18    1
    14    18    19    1
    15    19    20    1
    16    20    21    1
    17    21    22    1
    18    22    24    1
    19    24    25    2
    20    24    26    2
    21    24    27    1
    22    27    28    1
    23    28    29    1
    24    29    30    1
    25    30    31    1
    26    31    32    1
    27    32    33    1
    28     4     5    1
    29     5     6    1
    30    11    12   ar
    31    12     7   ar
    32     6     1    1
    33    33    28    1
    34    16    17    1
    35    22    23    1
@<TRIPOS>MOLECULE
*****
 33 35 0 0 0
SMALL
GASTEIGER

@<TRIPOS>ATOM
      1 N         140.6982  139.2252  164.0834 N.pl3   1  UNL1       -0.3046
      2 C         139.2142  139.3050  163.8803 C.3     1  UNL1        0.1081
      3 C         138.6425  139.2447  162.4948 C.3     1  UNL1        0.0938
      4 N         139.5549  139.1046  161.3124 N.3     1  UNL1       -0.2698
      5 C         141.0390  139.0248  161.5156 C.3     1  UNL1        0.0938
      6 C         141.6106  139.0851  162.9011 C.3     1  UNL1        0.1081
      7 C         141.0623  139.9949  167.9596 C.ar    1  UNL1        0.0515
      8 C         142.4131  139.4061  168.2399 C.ar    1  UNL1        0.0148
      9 C         143.1923  138.7569  167.1347 C.ar    1  UNL1        0.0025
     10 C         142.6206  138.6966  165.7492 C.ar    1  UNL1        0.0146
     11 C         141.2699  139.2855  165.4690 C.ar    1  UNL1        0.0492
     12 C         140.4907  139.9346  166.5742 C.ar    1  UNL1        0.0292
     13 C         139.7654  142.7254  170.5310 C.3     1  UNL1        0.0949
     14 C         140.5445  142.0763  169.4258 C.2     1  UNL1        0.2266
     15 O         141.5851  142.8595  168.6815 O.2     1  UNL1       -0.2748
     16 N         140.2831  140.6441  169.0649 N.am    1  UNL1       -0.2839
     17 H         139.6002  140.1301  169.5533 H       1  UNL1        0.1549
     18 C         138.9833  139.0444  159.9269 C.3     1  UNL1        0.0722
     19 C         138.9234  140.2848  159.0857 C.3     1  UNL1        0.0188
     20 C         137.9972  141.4029  159.4629 C.3     1  UNL1        0.0202
     21 C         138.5124  142.5698  160.2520 C.3     1  UNL1        0.0911
     22 N         137.7749  143.0338  161.4729 N.3     1  UNL1       -0.1833
     23 H         137.4216  142.1981  161.9388 H       1  UNL1        0.1484
     24 S         138.4863  143.8433  162.5164 S.O2    1  UNL1        0.0407
     25 O         137.6835  143.1673  163.5880 O.2     1  UNL1       -0.1575
     26 O         139.2891  144.5193  161.4448 O.2     1  UNL1       -0.1575
     27 C         139.1976  144.6527  163.5599 C.3     1  UNL1        0.1688
     28 C         140.6297  144.3553  163.8925 C.3     1  UNL1        0.0253
     29 C         141.6978  145.3589  163.5733 C.3     1  UNL1        0.0018
     30 C         143.1299  145.0616  163.9059 C.3     1  UNL1        0.0001
     31 C         143.4939  143.7606  164.5576 C.3     1  UNL1        0.0000
     32 C         142.4258  142.7568  164.8768 C.3     1  UNL1        0.0001
     33 C         140.9937  143.0542  164.5442 C.3     1  UNL1        0.0018
@<TRIPOS>BOND
     1    13    14    1
     2    14    15    2
     3    14    16   am
     4    16     7    1
     5     7     8   ar
     6     8     9   ar
     7     9    10   ar
     8    10    11   ar
     9    11     1    1
    10     1     2    1
    11     2     3    1
    12     3     4    1
    13     4    18    1
    14    18    19    1
    15    19    20    1
    16    20    21    1
    17    21    22    1
    18    22    24    1
    19    24    25    2
    20    24    26    2
    21    24    27    1
    22    27    28    1
    23    28    29    1
    24    29    30    1
    25    30    31    1
    26    31    32    1
    27    32    33    1
    28     4     5    1
    29     5     6    1
    30    11    12   ar
    31    12     7   ar
    32     6     1    1
    33    33    28    1
    34    16    17    1
    35    22    23    1
@<TRIPOS>MOLECULE
*****
 33 35 0 0 0
SMALL
GASTEIGER

@<TRIPOS>ATOM
      1 N         142.3198  141.4560  163.8454 N.pl3   1  UNL1       -0.3046
      2 C         142.7002  142.8970  163.6761 C.3     1  UNL1        0.1081
      3 C         142.8240  143.4835  162.3011 C.3     1  UNL1        0.0938
      4 N         142.5675  142.6289  161.0953 N.3     1  UNL1       -0.2698
      5 C         142.1871  141.1878  161.2646 C.3     1  UNL1        0.0938
      6 C         142.0633  140.6014  162.6397 C.3     1  UNL1        0.1081
      7 C         141.1665  140.9236  167.6053 C.ar    1  UNL1        0.0515
      8 C         141.9482  139.6966  167.9705 C.ar    1  UNL1        0.0148
      9 C         142.8538  139.0561  166.9607 C.ar    1  UNL1        0.0025
     10 C         142.9776  139.6425  165.5857 C.ar    1  UNL1        0.0146
     11 C         142.1960  140.8695  165.2205 C.ar    1  UNL1        0.0492
     12 C         141.2904  141.5100  166.2303 C.ar    1  UNL1        0.0292
     13 C         139.9017  143.2189  170.5855 C.3     1  UNL1        0.0949
     14 C         140.8072  142.5783  169.5757 C.2     1  UNL1        0.2266
     15 O         142.2592  142.9521  169.5266 O.2     1  UNL1       -0.2748
     16 N         140.2609  141.5641  168.6151 N.am    1  UNL1       -0.2839
     17 H         139.3080  141.3189  168.6473 H       1  UNL1        0.1549
     18 C         142.6913  143.2153  159.7203 C.3     1  UNL1        0.0722
     19 C         141.4676  143.4098  158.8749 C.3     1  UNL1        0.0188
     20 C         140.2470  144.0565  159.4597 C.3     1  UNL1        0.0202
     21 C         139.2678  143.2366  160.2463 C.3     1  UNL1        0.0911
     22 N         139.2527  143.3193  161.7439 N.3     1  UNL1       -0.1833
     23 H         138.9496  144.2633  161.9836 H       1  UNL1        0.1484
     24 S         138.3996  142.3756  162.5387 S.O2    1  UNL1        0.0407
     25 O         139.1057  142.7945  163.7940 O.2     1  UNL1       -0.1575
     26 O         137.6934  141.9567  161.2834 O.2     1  UNL1       -0.1575
     27 C         137.5465  141.4320  163.3335 C.3     1  UNL1        0.1688
     28 C         138.1397  140.1712  163.8888 C.3     1  UNL1        0.0253
     29 C         138.1728  139.9475  165.3716 C.3     1  UNL1        0.0018
     30 C         138.7661  138.6867  165.9269 C.3     1  UNL1        0.0001
     31 C         139.3263  137.6495  164.9993 C.3     1  UNL1        0.0000
     32 C         139.2932  137.8731  163.5164 C.3     1  UNL1        0.0001
     33 C         138.6999  139.1339  162.9611 C.3     1  UNL1        0.0018
@<TRIPOS>BOND
     1    13    14    1
     2    14    15    2
     3    14    16   am
     4    16     7    1
     5     7     8   ar
     6     8     9   ar
     7     9    10   ar
     8    10    11   ar
     9    11     1    1
    10     1     2    1
    11     2     3    1
    12     3     4    1
    13     4    18    1
    14    18    19    1
    15    19    20    1
    16    20    21    1
    17    21    22    1
    18    22    24    1
    19    24    25    2
    20    24    26    2
    21    24    27    1
    22    27    28    1
    23    28    29    1
    24    29    30    1
    25    30    31    1
    26    31    32    1
    27    32    33    1
    28     4     5    1
    29     5     6    1
    30    11    12   ar
    31    12     7   ar
    32     6     1    1
    33    33    28    1
    34    16    17    1
    35    22    23    1
@<TRIPOS>MOLECULE
*****
 33 35 0 0 0
SMALL
GASTEIGER

@<TRIPOS>ATOM
      1 N         139.1663  140.0229  163.2343 N.pl3   1  UNL1       -0.3046
      2 C         137.9073  139.6627  162.5029 C.3     1  UNL1        0.1081
      3 C         137.8773  139.6888  161.0034 C.3     1  UNL1        0.0938
      4 N         139.1065  140.0750  160.2353 N.3     1  UNL1       -0.2698
      5 C         140.3656  140.4351  160.9668 C.3     1  UNL1        0.0938
      6 C         140.3955  140.4091  162.4663 C.3     1  UNL1        0.1081
      7 C         140.1442  140.8917  166.9812 C.ar    1  UNL1        0.0515
      8 C         139.2562  139.9449  167.7327 C.ar    1  UNL1        0.0148
      9 C         138.3382  139.0240  166.9848 C.ar    1  UNL1        0.0025
     10 C         138.3082  139.0500  165.4854 C.ar    1  UNL1        0.0146
     11 C         139.1963  139.9969  164.7338 C.ar    1  UNL1        0.0492
     12 C         140.1143  140.9177  165.4817 C.ar    1  UNL1        0.0292
     13 C         143.3122  142.2376  168.9568 C.3     1  UNL1        0.0949
     14 C         142.3941  141.3167  168.2089 C.2     1  UNL1        0.2266
     15 O         142.8081  139.9001  167.9407 O.2     1  UNL1       -0.2748
     16 N         141.0622  141.8125  167.7291 N.am    1  UNL1       -0.2839
     17 H         140.7906  142.7423  167.9051 H       1  UNL1        0.1549
     18 C         139.0766  140.1010  158.7359 C.3     1  UNL1        0.0722
     19 C         139.4953  141.3385  157.9988 C.3     1  UNL1        0.0188
     20 C         138.8740  142.6607  158.3394 C.3     1  UNL1        0.0202
     21 C         139.6699  143.9235  158.1924 C.3     1  UNL1        0.0911
     22 N         140.9346  144.1085  158.9774 N.3     1  UNL1       -0.1833
     23 H         141.5176  144.7568  158.4480 H       1  UNL1        0.1484
     24 S         140.8755  144.6283  160.3833 S.O2    1  UNL1        0.0407
     25 O         141.8469  143.5702  160.8153 O.2     1  UNL1       -0.1575
     26 O         139.9041  145.6865  159.9512 O.2     1  UNL1       -0.1575
     27 C         140.8164  145.1481  161.7891 C.3     1  UNL1        0.1688
     28 C         139.7846  144.6201  162.7412 C.3     1  UNL1        0.0253
     29 C         139.8688  144.9565  164.2005 C.3     1  UNL1        0.0018
     30 C         138.8370  144.4285  165.1527 C.3     1  UNL1        0.0001
     31 C         137.7211  143.5640  164.6455 C.3     1  UNL1        0.0000
     32 C         137.6369  143.2275  163.1861 C.3     1  UNL1        0.0001
     33 C         138.6687  143.7555  162.2340 C.3     1  UNL1        0.0018
@<TRIPOS>BOND
     1    13    14    1
     2    14    15    2
     3    14    16   am
     4    16     7    1
     5     7     8   ar
     6     8     9   ar
     7     9    10   ar
     8    10    11   ar
     9    11     1    1
    10     1     2    1
    11     2     3    1
    12     3     4    1
    13     4    18    1
    14    18    19    1
    15    19    20    1
    16    20    21    1
    17    21    22    1
    18    22    24    1
    19    24    25    2
    20    24    26    2
    21    24    27    1
    22    27    28    1
    23    28    29    1
    24    29    30    1
    25    30    31    1
    26    31    32    1
    27    32    33    1
    28     4     5    1
    29     5     6    1
    30    11    12   ar
    31    12     7   ar
    32     6     1    1
    33    33    28    1
    34    16    17    1
    35    22    23    1
@<TRIPOS>MOLECULE
*****
 33 35 0 0 0
SMALL
GASTEIGER

@<TRIPOS>ATOM
      1 N         139.0492  140.6417  162.7734 N.pl3   1  UNL1       -0.3046
      2 C         137.9261  141.5847  162.4579 C.3     1  UNL1        0.1081
      3 C         138.1093  142.6467  161.4145 C.3     1  UNL1        0.0938
      4 N         139.4154  142.7658  160.6866 N.3     1  UNL1       -0.2698
      5 C         140.5385  141.8227  161.0022 C.3     1  UNL1        0.0938
      6 C         140.3554  140.7608  162.0456 C.3     1  UNL1        0.1081
      7 C         138.4356  138.9041  166.2883 C.ar    1  UNL1        0.0515
      8 C         138.4998  137.4558  165.9035 C.ar    1  UNL1        0.0148
      9 C         138.7471  137.0694  164.4754 C.ar    1  UNL1        0.0025
     10 C         138.9303  138.1313  163.4320 C.ar    1  UNL1        0.0146
     11 C         138.8661  139.5797  163.8168 C.ar    1  UNL1        0.0492
     12 C         138.6187  139.9661  165.2449 C.ar    1  UNL1        0.0292
     13 C         139.0313  140.3242  169.9459 C.3     1  UNL1        0.0949
     14 C         139.2786  139.9378  168.5178 C.2     1  UNL1        0.2266
     15 O         140.6163  140.1986  167.8911 O.2     1  UNL1       -0.2748
     16 N         138.1883  139.2905  167.7164 N.am    1  UNL1       -0.2839
     17 H         137.3104  139.1193  168.1277 H       1  UNL1        0.1549
     18 C         139.5986  143.8277  159.6433 C.3     1  UNL1        0.0722
     19 C         140.3833  145.0655  159.9627 C.3     1  UNL1        0.0188
     20 C         140.0478  145.8725  161.1819 C.3     1  UNL1        0.0202
     21 C         140.7899  145.6381  162.4641 C.3     1  UNL1        0.0911
     22 N         140.4277  144.4743  163.3383 N.3     1  UNL1       -0.1833
     23 H         140.1474  143.7154  162.7170 H       1  UNL1        0.1484
     24 S         141.4405  143.9052  164.2873 S.O2    1  UNL1        0.0407
     25 O         142.4996  144.7761  163.6791 O.2     1  UNL1       -0.1575
     26 O         140.3815  143.0344  164.8954 O.2     1  UNL1       -0.1575
     27 C         142.4533  143.3363  165.2362 C.3     1  UNL1        0.1688
     28 C         143.3322  142.2007  164.8028 C.3     1  UNL1        0.0253
     29 C         144.7249  142.4733  164.3171 C.3     1  UNL1        0.0018
     30 C         145.6039  141.3377  163.8837 C.3     1  UNL1        0.0001
     31 C         145.0901  139.9294  163.9360 C.3     1  UNL1        0.0000
     32 C         143.6973  139.6567  164.4217 C.3     1  UNL1        0.0001
     33 C         142.8184  140.7923  164.8551 C.3     1  UNL1        0.0018
@<TRIPOS>BOND
     1    13    14    1
     2    14    15    2
     3    14    16   am
     4    16     7    1
     5     7     8   ar
     6     8     9   ar
     7     9    10   ar
     8    10    11   ar
     9    11     1    1
    10     1     2    1
    11     2     3    1
    12     3     4    1
    13     4    18    1
    14    18    19    1
    15    19    20    1
    16    20    21    1
    17    21    22    1
    18    22    24    1
    19    24    25    2
    20    24    26    2
    21    24    27    1
    22    27    28    1
    23    28    29    1
    24    29    30    1
    25    30    31    1
    26    31    32    1
    27    32    33    1
    28     4     5    1
    29     5     6    1
    30    11    12   ar
    31    12     7   ar
    32     6     1    1
    33    33    28    1
    34    16    17    1
    35    22    23    1
@<TRIPOS>MOLECULE
*****
 33 35 0 0 0
SMALL
GASTEIGER

@<TRIPOS>ATOM
      1 N         143.5699  140.8018  163.1271 N.pl3   1  UNL1       -0.3046
      2 C         142.8046  140.2517  161.9602 C.3     1  UNL1        0.1081
      3 C         143.0734  140.7666  160.5771 C.3     1  UNL1        0.0938
      4 N         144.1075  141.8314  160.3611 N.3     1  UNL1       -0.2698
      5 C         144.8728  142.3815  161.5281 C.3     1  UNL1        0.0938
      6 C         144.6040  141.8666  162.9110 C.3     1  UNL1        0.1081
      7 C         142.2350  140.5977  166.8589 C.ar    1  UNL1        0.0515
      8 C         142.7635  139.2574  167.2761 C.ar    1  UNL1        0.0148
      9 C         143.5609  138.4319  166.3104 C.ar    1  UNL1        0.0025
     10 C         143.8297  138.9466  164.9274 C.ar    1  UNL1        0.0146
     11 C         143.3011  140.2869  164.5102 C.ar    1  UNL1        0.0492
     12 C         142.5038  141.1125  165.4759 C.ar    1  UNL1        0.0292
     13 C         141.3258  143.2713  169.6473 C.3     1  UNL1        0.0949
     14 C         142.1232  142.4458  168.6816 C.2     1  UNL1        0.2266
     15 O         143.6063  142.6428  168.5728 O.2     1  UNL1       -0.2748
     16 N         141.4376  141.4233  167.8247 N.am    1  UNL1       -0.2839
     17 H         140.4642  141.2940  167.8961 H       1  UNL1        0.1549
     18 C         144.3763  142.3463  158.9781 C.3     1  UNL1        0.0722
     19 C         143.5054  143.4192  158.3949 C.3     1  UNL1        0.0188
     20 C         142.0636  143.1342  158.0945 C.3     1  UNL1        0.0202
     21 C         140.9964  143.5787  159.0502 C.3     1  UNL1        0.0911
     22 N         140.9281  145.0129  159.4841 N.3     1  UNL1       -0.1833
     23 H         140.2396  145.4691  158.8855 H       1  UNL1        0.1484
     24 S         140.5639  145.3519  160.8992 S.O2    1  UNL1        0.0407
     25 O         141.6305  144.4218  161.3964 O.2     1  UNL1       -0.1575
     26 O         139.4974  146.2820  160.4020 O.2     1  UNL1       -0.1575
     27 C         140.1998  145.6909  162.3143 C.3     1  UNL1        0.1688
     28 C         139.5507  144.6598  163.1892 C.3     1  UNL1        0.0253
     29 C         140.1342  144.3426  164.5341 C.3     1  UNL1        0.0018
     30 C         139.4851  143.3115  165.4091 C.3     1  UNL1        0.0001
     31 C         138.2524  142.5977  164.9392 C.3     1  UNL1        0.0000
     32 C         137.6688  142.9150  163.5942 C.3     1  UNL1        0.0001
     33 C         138.3179  143.9460  162.7192 C.3     1  UNL1        0.0018
@<TRIPOS>BOND
     1    13    14    1
     2    14    15    2
     3    14    16   am
     4    16     7    1
     5     7     8   ar
     6     8     9   ar
     7     9    10   ar
     8    10    11   ar
     9    11     1    1
    10     1     2    1
    11     2     3    1
    12     3     4    1
    13     4    18    1
    14    18    19    1
    15    19    20    1
    16    20    21    1
    17    21    22    1
    18    22    24    1
    19    24    25    2
    20    24    26    2
    21    24    27    1
    22    27    28    1
    23    28    29    1
    24    29    30    1
    25    30    31    1
    26    31    32    1
    27    32    33    1
    28     4     5    1
    29     5     6    1
    30    11    12   ar
    31    12     7   ar
    32     6     1    1
    33    33    28    1
    34    16    17    1
    35    22    23    1
@<TRIPOS>MOLECULE
*****
 33 35 0 0 0
SMALL
GASTEIGER

@<TRIPOS>ATOM
      1 N         139.4398  142.4838  164.2916 N.pl3   1  UNL1       -0.3046
      2 C         138.7344  142.4077  162.9700 C.3     1  UNL1        0.1081
      3 C         138.9305  143.4915  161.9516 C.3     1  UNL1        0.0938
      4 N         139.8321  144.6513  162.2549 N.3     1  UNL1       -0.2698
      5 C         140.5374  144.7274  163.5766 C.3     1  UNL1        0.0938
      6 C         140.3413  143.6436  164.5949 C.3     1  UNL1        0.1081
      7 C         139.8904  140.2913  167.5688 C.ar    1  UNL1        0.0515
      8 C         138.8515  139.2325  167.3466 C.ar    1  UNL1        0.0148
      9 C         138.0086  139.2574  166.1061 C.ar    1  UNL1        0.0025
     10 C         138.2047  140.3412  165.0877 C.ar    1  UNL1        0.0146
     11 C         139.2436  141.4000  165.3099 C.ar    1  UNL1        0.0492
     12 C         140.0865  141.3751  166.5505 C.ar    1  UNL1        0.0292
     13 C         141.0122  140.7336  171.3498 C.3     1  UNL1        0.0949
     14 C         140.1693  140.7585  170.1093 C.2     1  UNL1        0.2266
     15 O         138.7624  141.2754  170.1687 O.2     1  UNL1       -0.2748
     16 N         140.7333  140.2664  168.8093 N.am    1  UNL1       -0.2839
     17 H         141.6567  139.9271  168.7704 H       1  UNL1        0.1549
     18 C         140.0282  145.7351  161.2367 C.3     1  UNL1        0.0722
     19 C         140.3434  145.3793  159.8140 C.3     1  UNL1        0.0188
     20 C         141.6612  144.7491  159.4727 C.3     1  UNL1        0.0202
     21 C         142.1949  143.6259  160.3114 C.3     1  UNL1        0.0911
     22 N         143.4997  143.7842  161.0342 N.3     1  UNL1       -0.1833
     23 H         143.3796  144.5530  161.6937 H       1  UNL1        0.1484
     24 S         144.0721  142.6344  161.8091 S.O2    1  UNL1        0.0407
     25 O         143.8423  143.3824  163.0888 O.2     1  UNL1       -0.1575
     26 O         144.3020  141.8864  160.5294 O.2     1  UNL1       -0.1575
     27 C         144.6446  141.4847  162.5839 C.3     1  UNL1        0.1688
     28 C         143.7333  140.5528  163.3264 C.3     1  UNL1        0.0253
     29 C         144.1829  139.9339  164.6167 C.3     1  UNL1        0.0018
     30 C         143.2716  139.0021  165.3592 C.3     1  UNL1        0.0001
     31 C         141.9107  138.6892  164.8114 C.3     1  UNL1        0.0000
     32 C         141.4611  139.3082  163.5211 C.3     1  UNL1        0.0001
     33 C         142.3724  140.2400  162.7786 C.3     1  UNL1        0.0018
@<TRIPOS>BOND
     1    13    14    1
     2    14    15    2
     3    14    16   am
     4    16     7    1
     5     7     8   ar
     6     8     9   ar
     7     9    10   ar
     8    10    11   ar
     9    11     1    1
    10     1     2    1
    11     2     3    1
    12     3     4    1
    13     4    18    1
    14    18    19    1
    15    19    20    1
    16    20    21    1
    17    21    22    1
    18    22    24    1
    19    24    25    2
    20    24    26    2
    21    24    27    1
    22    27    28    1
    23    28    29    1
    24    29    30    1
    25    30    31    1
    26    31    32    1
    27    32    33    1
    28     4     5    1
    29     5     6    1
    30    11    12   ar
    31    12     7   ar
    32     6     1    1
    33    33    28    1
    34    16    17    1
    35    22    23    1
@<TRIPOS>MOLECULE
*****
 33 35 0 0 0
SMALL
GASTEIGER

@<TRIPOS>ATOM
      1 N         141.7922  141.2924  163.8605 N.pl3   1  UNL1       -0.3046
      2 C         141.9551  140.7472  162.4727 C.3     1  UNL1        0.1081
      3 C         141.5099  141.5575  161.2915 C.3     1  UNL1        0.0938
      4 N         140.9018  142.9131  161.4982 N.3     1  UNL1       -0.2698
      5 C         140.7390  143.4583  162.8861 C.3     1  UNL1        0.0938
      6 C         141.1841  142.6479  164.0673 C.3     1  UNL1        0.1081
      7 C         142.5560  140.2331  167.6082 C.ar    1  UNL1        0.0515
      8 C         143.1278  138.8615  167.4042 C.ar    1  UNL1        0.0148
      9 C         143.2544  138.3002  166.0189 C.ar    1  UNL1        0.0025
     10 C         142.8092  139.1104  164.8377 C.ar    1  UNL1        0.0146
     11 C         142.2374  140.4820  165.0418 C.ar    1  UNL1        0.0492
     12 C         142.1108  141.0434  166.4270 C.ar    1  UNL1        0.0292
     13 C         141.0707  141.0819  171.1892 C.3     1  UNL1        0.0949
     14 C         141.1974  140.5206  169.8040 C.2     1  UNL1        0.2266
     15 O         140.0919  139.6852  169.2293 O.2     1  UNL1       -0.2748
     16 N         142.4294  140.7945  168.9934 N.am    1  UNL1       -0.2839
     17 H         143.1549  141.3428  169.3706 H       1  UNL1        0.1549
     18 C         140.4567  143.7234  160.3171 C.3     1  UNL1        0.0722
     19 C         139.9415  143.0362  159.0873 C.3     1  UNL1        0.0188
     20 C         138.5244  142.5465  159.0397 C.3     1  UNL1        0.0202
     21 C         138.2375  141.1110  158.7126 C.3     1  UNL1        0.0911
     22 N         139.1123  140.0261  159.2673 N.3     1  UNL1       -0.1833
     23 H         139.9708  140.4747  159.5870 H       1  UNL1        0.1484
     24 S         138.6221  139.1728  160.3995 S.O2    1  UNL1        0.0407
     25 O         137.2513  139.7634  160.2511 O.2     1  UNL1       -0.1575
     26 O         139.9929  138.5822  160.5479 O.2     1  UNL1       -0.1575
     27 C         138.1319  138.3196  161.5315 C.3     1  UNL1        0.1688
     28 C         138.3689  138.7466  162.9498 C.3     1  UNL1        0.0253
     29 C         138.9299  137.7722  163.9427 C.3     1  UNL1        0.0018
     30 C         139.1669  138.1993  165.3610 C.3     1  UNL1        0.0001
     31 C         138.8429  139.6007  165.7863 C.3     1  UNL1        0.0000
     32 C         138.2820  140.5752  164.7934 C.3     1  UNL1        0.0001
     33 C         138.0450  140.1482  163.3751 C.3     1  UNL1        0.0018
@<TRIPOS>BOND
     1    13    14    1
     2    14    15    2
     3    14    16   am
     4    16     7    1
     5     7     8   ar
     6     8     9   ar
     7     9    10   ar
     8    10    11   ar
     9    11     1    1
    10     1     2    1
    11     2     3    1
    12     3     4    1
    13     4    18    1
    14    18    19    1
    15    19    20    1
    16    20    21    1
    17    21    22    1
    18    22    24    1
    19    24    25    2
    20    24    26    2
    21    24    27    1
    22    27    28    1
    23    28    29    1
    24    29    30    1
    25    30    31    1
    26    31    32    1
    27    32    33    1
    28     4     5    1
    29     5     6    1
    30    11    12   ar
    31    12     7   ar
    32     6     1    1
    33    33    28    1
    34    16    17    1
    35    22    23    1
