@<TRIPOS>MOLECULE
*****
 31 34 0 0 0
SMALL
GASTEIGER

@<TRIPOS>ATOM
      1 C         138.9869  139.2590  166.3878 C.3     1  UNL1        0.0036
      2 C         140.1649  140.0712  166.8380 C.3     1  UNL1        0.0382
      3 C         139.1421  139.8341  167.9093 C.3     1  UNL1        0.0037
      4 C         139.3530  140.3941  169.2847 C.3     1  UNL1        0.0057
      5 C         140.5867  141.1912  169.5889 C.3     1  UNL1        0.0669
      6 C         141.6095  141.4283  168.5177 C.3     1  UNL1        0.0058
      7 C         141.3987  140.8683  167.1423 C.3     1  UNL1        0.0050
      8 C         142.2257  140.9373  165.8928 C.3     1  UNL1        0.0198
      9 C         141.5032  140.1829  164.8163 C.3     1  UNL1        0.0978
     10 C         140.2295  139.6476  165.4005 C.3     1  UNL1        0.1801
     11 N         141.9720  139.9964  163.4037 N.3     1  UNL1       -0.2697
     12 C         141.6938  141.0526  162.3756 C.3     1  UNL1        0.0722
     13 C         142.1626  140.8662  160.9630 C.3     1  UNL1        0.0187
     14 C         142.9096  139.6236  160.5785 C.3     1  UNL1        0.0183
     15 C         143.1877  138.5674  161.6066 C.3     1  UNL1        0.0670
     16 N         143.9346  137.3246  161.2221 N.3     1  UNL1       -0.3211
     17 C         142.7189  138.7538  163.0192 C.3     1  UNL1        0.0878
     18 H         144.0334  136.7210  162.0383 H       1  UNL1        0.1189
     19 H         144.8589  137.5779  160.8727 H       1  UNL1        0.1189
     20 C         140.7976  141.7512  170.9645 C.3     1  UNL1        0.3184
     21 F         141.9292  141.2510  171.8125 F       1  UNL1       -0.1984
     22 F         139.8767  142.8113  171.4919 F       1  UNL1       -0.1984
     23 O         139.2010  138.8319  164.6747 O.3     1  UNL1       -0.4778
     24 C         138.8376  139.1704  163.2594 C.ar    1  UNL1        0.1385
     25 C         139.1985  138.2309  162.1471 C.ar    1  UNL1        0.0376
     26 C         138.8350  138.5694  160.7318 C.ar    1  UNL1        0.0134
     27 C         138.1106  139.8474  160.4286 C.ar    1  UNL1        0.0686
     28 C         137.7496  140.7869  161.5408 C.ar    1  UNL1        0.0134
     29 C         138.1131  140.4484  162.9562 C.ar    1  UNL1        0.0376
     30 C         137.7471  140.1859  159.0132 C.1     1  UNL1        0.1004
     31 N         137.3836  140.5244  157.5979 N.1     1  UNL1       -0.1908
@<TRIPOS>BOND
     1     2     1    1
     2     2     3    1
     3     3     4    1
     4     4     5    1
     5     5    20    1
     6    20    21    1
     7    20    22    1
     8     5     6    1
     9     7     6    1
    10     7     8    1
    11     8     9    1
    12     9    11    1
    13    11    12    1
    14    12    13    1
    15    13    14    1
    16    14    15    1
    17    15    16    1
    18    15    17    1
    19     9    10    1
    20    10    23    1
    21    23    24    1
    22    24    25   ar
    23    25    26   ar
    24    26    27   ar
    25    27    30    1
    26    30    31    3
    27    27    28   ar
    28    28    29   ar
    29     7     2    1
    30    17    11    1
    31    29    24   ar
    32    10     2    1
    33    16    18    1
    34    16    19    1
@<TRIPOS>MOLECULE
*****
 31 34 0 0 0
SMALL
GASTEIGER

@<TRIPOS>ATOM
      1 C         140.1268  142.5140  165.5735 C.3     1  UNL1        0.0036
      2 C         141.5028  142.4039  166.1605 C.3     1  UNL1        0.0382
      3 C         140.4226  142.6304  167.1762 C.3     1  UNL1        0.0037
      4 C         140.7703  142.7265  168.6321 C.3     1  UNL1        0.0057
      5 C         142.1984  142.5962  169.0723 C.3     1  UNL1        0.0669
      6 C         143.2786  142.3697  168.0566 C.3     1  UNL1        0.0058
      7 C         142.9308  142.2735  166.6007 C.3     1  UNL1        0.0050
      8 C         143.7743  142.0561  165.3795 C.3     1  UNL1        0.0198
      9 C         142.8676  142.0520  164.1846 C.3     1  UNL1        0.0978
     10 C         141.4637  142.2670  164.6673 C.3     1  UNL1        0.1801
     11 N         143.2905  141.8657  162.7575 N.3     1  UNL1       -0.2697
     12 C         143.6455  143.0575  161.9188 C.3     1  UNL1        0.0722
     13 C         144.0684  142.8712  160.4918 C.3     1  UNL1        0.0187
     14 C         144.1363  141.4931  159.9034 C.3     1  UNL1        0.0183
     15 C         143.7813  140.3013  160.7422 C.3     1  UNL1        0.0670
     16 N         143.8492  138.9231  160.1539 N.3     1  UNL1       -0.3211
     17 C         143.3584  140.4876  162.1692 C.3     1  UNL1        0.0878
     18 H         143.5766  138.2385  160.8592 H       1  UNL1        0.1189
     19 H         144.8022  138.7319  159.8449 H       1  UNL1        0.1189
     20 C         142.5461  142.6924  170.5284 C.3     1  UNL1        0.3184
     21 F         141.9859  141.6969  171.5006 F       1  UNL1       -0.1984
     22 F         143.4541  143.7840  171.0120 F       1  UNL1       -0.1984
     23 O         140.2363  142.3333  163.8076 O.3     1  UNL1       -0.4778
     24 C         140.2587  143.1139  162.5271 C.ar    1  UNL1        0.1385
     25 C         140.4250  144.6043  162.5599 C.ar    1  UNL1        0.0376
     26 C         140.4475  145.3849  161.2792 C.ar    1  UNL1        0.0134
     27 C         140.3037  144.6752  159.9656 C.ar    1  UNL1        0.0686
     28 C         140.1374  143.1848  159.9327 C.ar    1  UNL1        0.0134
     29 C         140.1150  142.4042  161.2134 C.ar    1  UNL1        0.0376
     30 C         140.3261  145.4558  158.6849 C.1     1  UNL1        0.1004
     31 N         140.3486  146.2363  157.4043 N.1     1  UNL1       -0.1908
@<TRIPOS>BOND
     1     2     1    1
     2     2     3    1
     3     3     4    1
     4     4     5    1
     5     5    20    1
     6    20    21    1
     7    20    22    1
     8     5     6    1
     9     7     6    1
    10     7     8    1
    11     8     9    1
    12     9    11    1
    13    11    12    1
    14    12    13    1
    15    13    14    1
    16    14    15    1
    17    15    16    1
    18    15    17    1
    19     9    10    1
    20    10    23    1
    21    23    24    1
    22    24    25   ar
    23    25    26   ar
    24    26    27   ar
    25    27    30    1
    26    30    31    3
    27    27    28   ar
    28    28    29   ar
    29     7     2    1
    30    17    11    1
    31    29    24   ar
    32    10     2    1
    33    16    18    1
    34    16    19    1
@<TRIPOS>MOLECULE
*****
 31 34 0 0 0
SMALL
GASTEIGER

@<TRIPOS>ATOM
      1 C         139.5195  139.5188  165.9610 C.3     1  UNL1        0.0036
      2 C         139.9424  140.8884  166.4032 C.3     1  UNL1        0.0382
      3 C         139.5692  139.9715  167.5301 C.3     1  UNL1        0.0037
      4 C         139.6396  140.4578  168.9473 C.3     1  UNL1        0.0057
      5 C         140.0832  141.8610  169.2376 C.3     1  UNL1        0.0669
      6 C         140.4564  142.7779  168.1107 C.3     1  UNL1        0.0058
      7 C         140.3860  142.2916  166.6935 C.3     1  UNL1        0.0050
      8 C         140.6894  142.9616  165.3862 C.3     1  UNL1        0.0198
      9 C         140.4333  141.9725  164.2879 C.3     1  UNL1        0.0978
     10 C         139.9716  140.6912  164.9165 C.3     1  UNL1        0.1801
     11 N         140.6081  142.2211  162.8190 N.3     1  UNL1       -0.2697
     12 C         141.9798  142.1980  162.2125 C.3     1  UNL1        0.0722
     13 C         142.1546  142.4466  160.7436 C.3     1  UNL1        0.0187
     14 C         140.9578  142.7183  159.8813 C.3     1  UNL1        0.0183
     15 C         139.5861  142.7414  160.4878 C.3     1  UNL1        0.0670
     16 N         138.3892  143.0131  159.6254 N.3     1  UNL1       -0.3211
     17 C         139.4113  142.4928  161.9567 C.3     1  UNL1        0.0878
     18 H         137.5455  142.9912  160.1982 H       1  UNL1        0.1189
     19 H         138.3252  142.3005  158.8984 H       1  UNL1        0.1189
     20 C         140.1536  142.3473  170.6549 C.3     1  UNL1        0.3184
     21 F         139.2539  143.4568  171.1127 F       1  UNL1       -0.1984
     22 F         141.1237  141.7241  171.6143 F       1  UNL1       -0.1984
     23 O         139.6038  139.4335  164.1866 O.3     1  UNL1       -0.4778
     24 C         140.3034  139.0759  162.9089 C.ar    1  UNL1        0.1385
     25 C         139.5438  139.0646  161.6155 C.ar    1  UNL1        0.0376
     26 C         140.2435  138.7069  160.3379 C.ar    1  UNL1        0.0134
     27 C         141.7029  138.3605  160.3535 C.ar    1  UNL1        0.0686
     28 C         142.4626  138.3718  161.6469 C.ar    1  UNL1        0.0134
     29 C         141.7628  138.7294  162.9245 C.ar    1  UNL1        0.0376
     30 C         142.4026  138.0028  159.0758 C.1     1  UNL1        0.1004
     31 N         143.1023  137.6451  157.7982 N.1     1  UNL1       -0.1908
@<TRIPOS>BOND
     1     2     1    1
     2     2     3    1
     3     3     4    1
     4     4     5    1
     5     5    20    1
     6    20    21    1
     7    20    22    1
     8     5     6    1
     9     7     6    1
    10     7     8    1
    11     8     9    1
    12     9    11    1
    13    11    12    1
    14    12    13    1
    15    13    14    1
    16    14    15    1
    17    15    16    1
    18    15    17    1
    19     9    10    1
    20    10    23    1
    21    23    24    1
    22    24    25   ar
    23    25    26   ar
    24    26    27   ar
    25    27    30    1
    26    30    31    3
    27    27    28   ar
    28    28    29   ar
    29     7     2    1
    30    17    11    1
    31    29    24   ar
    32    10     2    1
    33    16    18    1
    34    16    19    1
@<TRIPOS>MOLECULE
*****
 31 34 0 0 0
SMALL
GASTEIGER

@<TRIPOS>ATOM
      1 C         139.5563  140.9875  165.6781 C.3     1  UNL1        0.0036
      2 C         140.8577  141.6466  166.0274 C.3     1  UNL1        0.0382
      3 C         140.3476  140.7075  167.0799 C.3     1  UNL1        0.0037
      4 C         141.1296  140.5006  168.3430 C.3     1  UNL1        0.0057
      5 C         142.4216  141.2328  168.5537 C.3     1  UNL1        0.0669
      6 C         142.9317  142.1720  167.5013 C.3     1  UNL1        0.0058
      7 C         142.1497  142.3789  166.2381 C.3     1  UNL1        0.0050
      8 C         142.3996  143.2345  165.0317 C.3     1  UNL1        0.0198
      9 C         141.2621  143.0311  164.0753 C.3     1  UNL1        0.0978
     10 C         140.3091  142.0497  164.6908 C.3     1  UNL1        0.1801
     11 N         141.1050  143.6928  162.7384 N.3     1  UNL1       -0.2697
     12 C         141.7997  143.1270  161.5353 C.3     1  UNL1        0.0722
     13 C         141.6426  143.7888  160.1984 C.3     1  UNL1        0.0187
     14 C         140.7910  145.0162  160.0645 C.3     1  UNL1        0.0183
     15 C         140.0964  145.5820  161.2675 C.3     1  UNL1        0.0670
     16 N         139.2447  146.8095  161.1336 N.3     1  UNL1       -0.3211
     17 C         140.2534  144.9203  162.6045 C.3     1  UNL1        0.0878
     18 H         138.8527  147.0522  162.0435 H       1  UNL1        0.1189
     19 H         138.4876  146.6279  160.4747 H       1  UNL1        0.1189
     20 C         143.2037  141.0259  169.8170 C.3     1  UNL1        0.3184
     21 F         144.3170  141.9661  170.1724 F       1  UNL1       -0.1984
     22 F         142.8722  139.8787  170.7248 F       1  UNL1       -0.1984
     23 O         139.0317  141.5577  164.0773 O.3     1  UNL1       -0.4778
     24 C         139.0144  141.0948  162.6507 C.ar    1  UNL1        0.1385
     25 C         139.7593  139.8543  162.2555 C.ar    1  UNL1        0.0376
     26 C         139.7420  139.3914  160.8288 C.ar    1  UNL1        0.0134
     27 C         138.9798  140.1691  159.7972 C.ar    1  UNL1        0.0686
     28 C         138.2349  141.4097  160.1923 C.ar    1  UNL1        0.0134
     29 C         138.2522  141.8725  161.6190 C.ar    1  UNL1        0.0376
     30 C         138.9624  139.7062  158.3705 C.1     1  UNL1        0.1004
     31 N         138.9451  139.2434  156.9439 N.1     1  UNL1       -0.1908
@<TRIPOS>BOND
     1     2     1    1
     2     2     3    1
     3     3     4    1
     4     4     5    1
     5     5    20    1
     6    20    21    1
     7    20    22    1
     8     5     6    1
     9     7     6    1
    10     7     8    1
    11     8     9    1
    12     9    11    1
    13    11    12    1
    14    12    13    1
    15    13    14    1
    16    14    15    1
    17    15    16    1
    18    15    17    1
    19     9    10    1
    20    10    23    1
    21    23    24    1
    22    24    25   ar
    23    25    26   ar
    24    26    27   ar
    25    27    30    1
    26    30    31    3
    27    27    28   ar
    28    28    29   ar
    29     7     2    1
    30    17    11    1
    31    29    24   ar
    32    10     2    1
    33    16    18    1
    34    16    19    1
@<TRIPOS>MOLECULE
*****
 31 34 0 0 0
SMALL
GASTEIGER

@<TRIPOS>ATOM
      1 C         143.5032  142.1013  165.8256 C.3     1  UNL1        0.0036
      2 C         142.1383  142.4756  166.3226 C.3     1  UNL1        0.0382
      3 C         143.1044  142.1094  167.4101 C.3     1  UNL1        0.0037
      4 C         142.6660  142.1399  168.8442 C.3     1  UNL1        0.0057
      5 C         141.2616  142.5367  169.1910 C.3     1  UNL1        0.0669
      6 C         140.2955  142.9029  168.1035 C.3     1  UNL1        0.0058
      7 C         140.7339  142.8723  166.6694 C.3     1  UNL1        0.0050
      8 C         140.0101  143.1793  165.3919 C.3     1  UNL1        0.0198
      9 C         140.9672  142.9722  164.2556 C.3     1  UNL1        0.0978
     10 C         142.2825  142.5373  164.8308 C.3     1  UNL1        0.1801
     11 N         140.6625  143.1660  162.7997 N.3     1  UNL1       -0.2697
     12 C         139.7255  142.2280  162.0982 C.3     1  UNL1        0.0722
     13 C         139.4208  142.4218  160.6423 C.3     1  UNL1        0.0187
     14 C         140.0531  143.5536  159.8879 C.3     1  UNL1        0.0183
     15 C         140.9901  144.4916  160.5894 C.3     1  UNL1        0.0670
     16 N         141.6224  145.6235  159.8350 N.3     1  UNL1       -0.3211
     17 C         141.2948  144.2978  162.0453 C.3     1  UNL1        0.0878
     18 H         142.2254  146.1555  160.4626 H       1  UNL1        0.1189
     19 H         140.8942  146.2341  159.4645 H       1  UNL1        0.1189
     20 C         140.8233  142.5672  170.6252 C.3     1  UNL1        0.3184
     21 F         141.7196  142.0180  171.6952 F       1  UNL1       -0.1984
     22 F         139.4886  143.1469  170.9894 F       1  UNL1       -0.1984
     23 O         143.5240  142.2199  164.0512 O.3     1  UNL1       -0.4778
     24 C         143.4357  141.3881  162.8062 C.ar    1  UNL1        0.1385
     25 C         143.9717  141.9190  161.5098 C.ar    1  UNL1        0.0376
     26 C         143.8834  141.0871  160.2648 C.ar    1  UNL1        0.0134
     27 C         143.2591  139.7242  160.3161 C.ar    1  UNL1        0.0686
     28 C         142.7230  139.1931  161.6125 C.ar    1  UNL1        0.0134
     29 C         142.8113  140.0251  162.8575 C.ar    1  UNL1        0.0376
     30 C         143.1707  138.8922  159.0711 C.1     1  UNL1        0.1004
     31 N         143.0824  138.0603  157.8261 N.1     1  UNL1       -0.1908
@<TRIPOS>BOND
     1     2     1    1
     2     2     3    1
     3     3     4    1
     4     4     5    1
     5     5    20    1
     6    20    21    1
     7    20    22    1
     8     5     6    1
     9     7     6    1
    10     7     8    1
    11     8     9    1
    12     9    11    1
    13    11    12    1
    14    12    13    1
    15    13    14    1
    16    14    15    1
    17    15    16    1
    18    15    17    1
    19     9    10    1
    20    10    23    1
    21    23    24    1
    22    24    25   ar
    23    25    26   ar
    24    26    27   ar
    25    27    30    1
    26    30    31    3
    27    27    28   ar
    28    28    29   ar
    29     7     2    1
    30    17    11    1
    31    29    24   ar
    32    10     2    1
    33    16    18    1
    34    16    19    1
@<TRIPOS>MOLECULE
*****
 31 34 0 0 0
SMALL
GASTEIGER

@<TRIPOS>ATOM
      1 C         142.6981  138.8476  166.3124 C.3     1  UNL1        0.0036
      2 C         141.5372  139.6728  166.7830 C.3     1  UNL1        0.0382
      3 C         142.6010  139.4685  167.8206 C.3     1  UNL1        0.0037
      4 C         142.4426  140.0699  169.1856 C.3     1  UNL1        0.0057
      5 C         141.2205  140.8756  169.5130 C.3     1  UNL1        0.0669
      6 C         140.1567  141.0799  168.4754 C.3     1  UNL1        0.0058
      7 C         140.3151  140.4785  167.1104 C.3     1  UNL1        0.0050
      8 C         139.4403  140.5095  165.8923 C.3     1  UNL1        0.0198
      9 C         140.1218  139.7229  164.8121 C.3     1  UNL1        0.0978
     10 C         141.4177  139.2058  165.3626 C.3     1  UNL1        0.1801
     11 N         139.5990  139.4936  163.4250 N.3     1  UNL1       -0.2697
     12 C         138.8511  138.2336  163.1040 C.3     1  UNL1        0.0722
     13 C         138.3284  138.0044  161.7169 C.3     1  UNL1        0.0187
     14 C         138.5536  139.0351  160.6507 C.3     1  UNL1        0.0183
     15 C         139.3015  140.2951  160.9716 C.3     1  UNL1        0.0670
     16 N         139.5267  141.3259  159.9053 N.3     1  UNL1       -0.3211
     17 C         139.8242  140.5243  162.3587 C.3     1  UNL1        0.0878
     18 H         140.0480  142.1107  160.2959 H       1  UNL1        0.1189
     19 H         138.6270  141.6556  159.5557 H       1  UNL1        0.1189
     20 C         141.0621  141.4771  170.8780 C.3     1  UNL1        0.3184
     21 F         141.9006  140.9804  172.0183 F       1  UNL1       -0.1984
     22 F         140.0652  142.5751  171.1028 F       1  UNL1       -0.1984
     23 O         142.4186  138.3687  164.6226 O.3     1  UNL1       -0.4778
     24 C         142.8291  138.7464  163.2303 C.ar    1  UNL1        0.1385
     25 C         143.6606  139.9734  163.0002 C.ar    1  UNL1        0.0376
     26 C         144.0711  140.3510  161.6078 C.ar    1  UNL1        0.0134
     27 C         143.6502  139.5016  160.4454 C.ar    1  UNL1        0.0686
     28 C         142.8186  138.2746  160.6753 C.ar    1  UNL1        0.0134
     29 C         142.4081  137.8969  162.0678 C.ar    1  UNL1        0.0376
     30 C         144.0607  139.8792  159.0529 C.1     1  UNL1        0.1004
     31 N         144.4712  140.2568  157.6605 N.1     1  UNL1       -0.1908
@<TRIPOS>BOND
     1     2     1    1
     2     2     3    1
     3     3     4    1
     4     4     5    1
     5     5    20    1
     6    20    21    1
     7    20    22    1
     8     5     6    1
     9     7     6    1
    10     7     8    1
    11     8     9    1
    12     9    11    1
    13    11    12    1
    14    12    13    1
    15    13    14    1
    16    14    15    1
    17    15    16    1
    18    15    17    1
    19     9    10    1
    20    10    23    1
    21    23    24    1
    22    24    25   ar
    23    25    26   ar
    24    26    27   ar
    25    27    30    1
    26    30    31    3
    27    27    28   ar
    28    28    29   ar
    29     7     2    1
    30    17    11    1
    31    29    24   ar
    32    10     2    1
    33    16    18    1
    34    16    19    1
@<TRIPOS>MOLECULE
*****
 31 34 0 0 0
SMALL
GASTEIGER

@<TRIPOS>ATOM
      1 C         143.2362  139.6579  165.9346 C.3     1  UNL1        0.0036
      2 C         141.9736  140.3145  166.4087 C.3     1  UNL1        0.0382
      3 C         142.7122  139.5677  167.4796 C.3     1  UNL1        0.0037
      4 C         142.1693  139.5288  168.8773 C.3     1  UNL1        0.0057
      5 C         140.8879  140.2367  169.2042 C.3     1  UNL1        0.0669
      6 C         140.1493  140.9835  168.1333 C.3     1  UNL1        0.0058
      7 C         140.6922  141.0224  166.7356 C.3     1  UNL1        0.0050
      8 C         140.1888  141.6725  165.4810 C.3     1  UNL1        0.0198
      9 C         141.1591  141.3665  164.3788 C.3     1  UNL1        0.0978
     10 C         142.2621  140.5272  164.9522 C.3     1  UNL1        0.1801
     11 N         141.0461  141.8201  162.9535 N.3     1  UNL1       -0.2697
     12 C         140.2448  141.0172  161.9722 C.3     1  UNL1        0.0722
     13 C         140.1318  141.4709  160.5469 C.3     1  UNL1        0.0187
     14 C         140.8202  142.7274  160.1029 C.3     1  UNL1        0.0183
     15 C         141.6215  143.5304  161.0843 C.3     1  UNL1        0.0670
     16 N         142.3100  144.7870  160.6404 N.3     1  UNL1       -0.3211
     17 C         141.7345  143.0767  162.5096 C.3     1  UNL1        0.0878
     18 H         142.8044  145.2011  161.4306 H       1  UNL1        0.1189
     19 H         141.6174  145.4480  160.2885 H       1  UNL1        0.1189
     20 C         140.3450  140.1977  170.6020 C.3     1  UNL1        0.3184
     21 F         138.9587  139.6833  170.8541 F       1  UNL1       -0.1984
     22 F         141.1884  140.6732  171.7476 F       1  UNL1       -0.1984
     23 O         143.4459  139.9941  164.2009 O.3     1  UNL1       -0.4778
     24 C         143.2705  139.4461  162.8157 C.ar    1  UNL1        0.1385
     25 C         142.4297  138.2238  162.5936 C.ar    1  UNL1        0.0376
     26 C         142.2543  137.6758  161.2083 C.ar    1  UNL1        0.0134
     27 C         142.9195  138.3500  160.0452 C.ar    1  UNL1        0.0686
     28 C         143.7603  139.5722  160.2673 C.ar    1  UNL1        0.0134
     29 C         143.9357  140.1202  161.6525 C.ar    1  UNL1        0.0376
     30 C         142.7441  137.8020  158.6599 C.1     1  UNL1        0.1004
     31 N         142.5686  137.2540  157.2747 N.1     1  UNL1       -0.1908
@<TRIPOS>BOND
     1     2     1    1
     2     2     3    1
     3     3     4    1
     4     4     5    1
     5     5    20    1
     6    20    21    1
     7    20    22    1
     8     5     6    1
     9     7     6    1
    10     7     8    1
    11     8     9    1
    12     9    11    1
    13    11    12    1
    14    12    13    1
    15    13    14    1
    16    14    15    1
    17    15    16    1
    18    15    17    1
    19     9    10    1
    20    10    23    1
    21    23    24    1
    22    24    25   ar
    23    25    26   ar
    24    26    27   ar
    25    27    30    1
    26    30    31    3
    27    27    28   ar
    28    28    29   ar
    29     7     2    1
    30    17    11    1
    31    29    24   ar
    32    10     2    1
    33    16    18    1
    34    16    19    1
@<TRIPOS>MOLECULE
*****
 31 34 0 0 0
SMALL
GASTEIGER

@<TRIPOS>ATOM
      1 C         140.2962  143.0756  165.7384 C.3     1  UNL1        0.0036
      2 C         140.1156  141.7420  166.4009 C.3     1  UNL1        0.0382
      3 C         140.3712  142.8688  167.3574 C.3     1  UNL1        0.0037
      4 C         140.4264  142.6025  168.8325 C.3     1  UNL1        0.0057
      5 C         140.2259  141.2094  169.3512 C.3     1  UNL1        0.0669
      6 C         139.9703  140.0826  168.3947 C.3     1  UNL1        0.0058
      7 C         139.9151  140.3489  166.9196 C.3     1  UNL1        0.0050
      8 C         139.6825  139.4459  165.7446 C.3     1  UNL1        0.0198
      9 C         139.7393  140.2809  164.4998 C.3     1  UNL1        0.0978
     10 C         140.0069  141.7000  164.9055 C.3     1  UNL1        0.1801
     11 N         139.5598  139.7841  163.0959 N.3     1  UNL1       -0.2697
     12 C         140.7213  139.1885  162.3569 C.3     1  UNL1        0.0722
     13 C         140.5419  138.6917  160.9530 C.3     1  UNL1        0.0187
     14 C         139.2010  138.7905  160.2881 C.3     1  UNL1        0.0183
     15 C         138.0395  139.3862  161.0270 C.3     1  UNL1        0.0670
     16 N         136.6985  139.4850  160.3621 N.3     1  UNL1       -0.3211
     17 C         138.2189  139.8830  162.4310 C.3     1  UNL1        0.0878
     18 H         136.0311  139.9118  161.0046 H       1  UNL1        0.1189
     19 H         136.3758  138.5516  160.1071 H       1  UNL1        0.1189
     20 C         140.2810  140.9431  170.8263 C.3     1  UNL1        0.3184
     21 F         139.9349  139.5833  171.3565 F       1  UNL1       -0.1984
     22 F         140.6824  142.0366  171.7714 F       1  UNL1       -0.1984
     23 O         140.1421  142.8715  163.9784 O.3     1  UNL1       -0.4778
     24 C         141.0927  142.8054  162.8200 C.ar    1  UNL1        0.1385
     25 C         142.5406  142.4920  163.0548 C.ar    1  UNL1        0.0376
     26 C         143.4912  142.4260  161.8963 C.ar    1  UNL1        0.0134
     27 C         142.9938  142.6733  160.5030 C.ar    1  UNL1        0.0686
     28 C         141.5458  142.9868  160.2681 C.ar    1  UNL1        0.0134
     29 C         140.5953  143.0528  161.4266 C.ar    1  UNL1        0.0376
     30 C         143.9443  142.6073  159.3445 C.1     1  UNL1        0.1004
     31 N         144.8948  142.5413  158.1860 N.1     1  UNL1       -0.1908
@<TRIPOS>BOND
     1     2     1    1
     2     2     3    1
     3     3     4    1
     4     4     5    1
     5     5    20    1
     6    20    21    1
     7    20    22    1
     8     5     6    1
     9     7     6    1
    10     7     8    1
    11     8     9    1
    12     9    11    1
    13    11    12    1
    14    12    13    1
    15    13    14    1
    16    14    15    1
    17    15    16    1
    18    15    17    1
    19     9    10    1
    20    10    23    1
    21    23    24    1
    22    24    25   ar
    23    25    26   ar
    24    26    27   ar
    25    27    30    1
    26    30    31    3
    27    27    28   ar
    28    28    29   ar
    29     7     2    1
    30    17    11    1
    31    29    24   ar
    32    10     2    1
    33    16    18    1
    34    16    19    1
@<TRIPOS>MOLECULE
*****
 31 34 0 0 0
SMALL
GASTEIGER

@<TRIPOS>ATOM
      1 C         142.1661  142.4014  165.6697 C.3     1  UNL1        0.0036
      2 C         142.3713  141.0603  166.3096 C.3     1  UNL1        0.0382
      3 C         142.3009  142.1975  167.2852 C.3     1  UNL1        0.0037
      4 C         142.4331  141.9332  168.7558 C.3     1  UNL1        0.0057
      5 C         142.6356  140.5318  169.2507 C.3     1  UNL1        0.0669
      6 C         142.7060  139.3947  168.2752 C.3     1  UNL1        0.0058
      7 C         142.5738  139.6589  166.8046 C.3     1  UNL1        0.0050
      8 C         142.6024  138.7465  165.6143 C.3     1  UNL1        0.0198
      9 C         142.4176  139.5840  164.3837 C.3     1  UNL1        0.0978
     10 C         142.2747  141.0140  164.8134 C.3     1  UNL1        0.1801
     11 N         142.3819  139.0800  162.9713 N.3     1  UNL1       -0.2697
     12 C         143.6574  138.7081  162.2753 C.3     1  UNL1        0.0722
     13 C         143.6217  138.2041  160.8629 C.3     1  UNL1        0.0187
     14 C         142.3105  138.0720  160.1467 C.3     1  UNL1        0.0183
     15 C         141.0349  138.4439  160.8427 C.3     1  UNL1        0.0670
     16 N         139.7235  138.3118  160.1265 N.3     1  UNL1       -0.3211
     17 C         141.0706  138.9479  162.2551 C.3     1  UNL1        0.0878
     18 H         138.9674  138.6061  160.7446 H       1  UNL1        0.1189
     19 H         139.5812  137.3392  159.8544 H       1  UNL1        0.1189
     20 C         142.7678  140.2676  170.7214 C.3     1  UNL1        0.3184
     21 F         143.7527  139.2496  171.2150 F       1  UNL1       -0.1984
     22 F         141.9152  141.0215  171.6985 F       1  UNL1       -0.1984
     23 O         142.0711  142.1911  163.9062 O.3     1  UNL1       -0.4778
     24 C         142.7614  142.2408  162.5756 C.ar    1  UNL1        0.1385
     25 C         141.9550  142.2203  161.3109 C.ar    1  UNL1        0.0376
     26 C         142.6455  142.2700  159.9802 C.ar    1  UNL1        0.0134
     27 C         144.1423  142.3402  159.9141 C.ar    1  UNL1        0.0686
     28 C         144.9489  142.3608  161.1787 C.ar    1  UNL1        0.0134
     29 C         144.2584  142.3111  162.5094 C.ar    1  UNL1        0.0376
     30 C         144.8328  142.3899  158.5834 C.1     1  UNL1        0.1004
     31 N         145.5233  142.4397  157.2527 N.1     1  UNL1       -0.1908
@<TRIPOS>BOND
     1     2     1    1
     2     2     3    1
     3     3     4    1
     4     4     5    1
     5     5    20    1
     6    20    21    1
     7    20    22    1
     8     5     6    1
     9     7     6    1
    10     7     8    1
    11     8     9    1
    12     9    11    1
    13    11    12    1
    14    12    13    1
    15    13    14    1
    16    14    15    1
    17    15    16    1
    18    15    17    1
    19     9    10    1
    20    10    23    1
    21    23    24    1
    22    24    25   ar
    23    25    26   ar
    24    26    27   ar
    25    27    30    1
    26    30    31    3
    27    27    28   ar
    28    28    29   ar
    29     7     2    1
    30    17    11    1
    31    29    24   ar
    32    10     2    1
    33    16    18    1
    34    16    19    1
