@<TRIPOS>MOLECULE
*****
 33 37 0 0 0
SMALL
GASTEIGER

@<TRIPOS>ATOM
      1 N         141.9588  140.1156  167.4368 N.am    1  UNL1       -0.2625
      2 C         142.9896  139.0708  167.1269 C.3     1  UNL1        0.0983
      3 C         142.6282  138.4375  165.8160 C.3     1  UNL1        0.0306
      4 C         141.3740  139.0909  165.3157 C.3     1  UNL1        0.0737
      5 C         140.1239  139.8324  164.9452 C.3     1  UNL1        0.0260
      6 C         139.4090  139.5060  163.6676 C.3     1  UNL1        0.0727
      7 N         139.9442  138.4380  162.7605 N.3     1  UNL1       -0.2703
      8 C         141.1943  137.6965  163.1309 C.3     1  UNL1        0.0727
      9 C         141.9092  138.0229  164.4085 C.3     1  UNL1        0.0260
     10 C         140.9603  140.1280  166.3173 C.2     1  UNL1        0.2283
     11 O         139.7590  141.0207  166.2172 O.2     1  UNL1       -0.2746
     12 C         139.6489  140.1283  169.7419 C.3     1  UNL1        0.0350
     13 C         140.8696  140.9996  169.7120 C.2     1  UNL1        0.0224
     14 C         141.9313  140.9938  168.6525 C.2     1  UNL1        0.0304
     15 C         142.9607  142.0203  169.0221 C.3     1  UNL1        0.0493
     16 C         142.5352  142.6605  170.3101 C.3     1  UNL1        0.0748
     17 C         141.2428  142.0298  170.7365 C.2     1  UNL1        0.1704
     18 O         140.4609  142.3694  171.9707 O.2     1  UNL1       -0.2916
     19 C         139.2293  138.1116  161.4828 C.3     1  UNL1        0.1063
     20 C         139.5112  138.9053  160.2417 C.3     1  UNL1        0.1483
     21 O         139.6207  138.2115  158.9164 O.3     1  UNL1       -0.3786
     22 H         139.8042  138.8650  158.2234 H       1  UNL1        0.2108
     23 C         139.6837  140.3931  160.3259 C.ar    1  UNL1        0.0015
     24 C         138.4807  141.2890  160.3213 C.ar    1  UNL1       -0.0020
     25 C         138.6531  142.7766  160.4055 C.ar    1  UNL1        0.0060
     26 C         140.0286  143.3683  160.4943 C.ar    1  UNL1        0.0748
     27 C         141.2316  142.4724  160.4989 C.ar    1  UNL1        0.0233
     28 C         141.0592  140.9848  160.4147 C.ar    1  UNL1       -0.0238
     29 C         142.2622  140.0888  160.4194 C.3     1  UNL1        0.0306
     30 C         142.4533  143.3374  160.5954 C.3     1  UNL1        0.2352
     31 O         142.0054  144.7679  160.6503 O.3     1  UNL1       -0.4404
     32 C         140.5068  144.7870  160.5879 C.2     1  UNL1        0.3413
     33 O         139.6388  146.0101  160.6143 O.2     1  UNL1       -0.2449
@<TRIPOS>BOND
     1    12    13    1
     2    13    14    2
     3    14     1    1
     4     1     2    1
     5     2     3    1
     6     3     4    1
     7     4     5    1
     8     5     6    1
     9     6     7    1
    10     7    19    1
    11    19    20    1
    12    20    21    1
    13    20    23    1
    14    23    24   ar
    15    24    25   ar
    16    25    26   ar
    17    26    27   ar
    18    27    28   ar
    19    28    29    1
    20    27    30    1
    21    30    31    1
    22    31    32    1
    23    32    33    2
    24     7     8    1
    25     8     9    1
    26     4    10    1
    27    10    11    2
    28    14    15    1
    29    15    16    1
    30    16    17    1
    31    17    18    2
    32    17    13    1
    33    10     1   am
    34     9     4    1
    35    28    23   ar
    36    32    26    1
    37    21    22    1
@<TRIPOS>MOLECULE
*****
 33 37 0 0 0
SMALL
GASTEIGER

@<TRIPOS>ATOM
      1 N         142.8193  140.4996  167.6158 N.am    1  UNL1       -0.2625
      2 C         142.9083  139.0064  167.5034 C.3     1  UNL1        0.0983
      3 C         143.1702  138.6645  166.0665 C.3     1  UNL1        0.0306
      4 C         143.2429  139.9464  165.2908 C.3     1  UNL1        0.0737
      5 C         143.2890  141.3023  164.6510 C.3     1  UNL1        0.0260
      6 C         143.5353  141.4279  163.1768 C.3     1  UNL1        0.0727
      7 N         143.7356  140.1977  162.3423 N.3     1  UNL1       -0.2703
      8 C         143.6896  138.8418  162.9821 C.3     1  UNL1        0.0727
      9 C         143.4432  138.7161  164.4564 C.3     1  UNL1        0.0260
     10 C         143.0261  141.0805  166.2483 C.2     1  UNL1        0.2283
     11 O         143.0175  142.5394  165.8997 O.2     1  UNL1       -0.2746
     12 C         140.2687  140.1323  169.6180 C.3     1  UNL1        0.0350
     13 C         141.3953  141.1067  169.7949 C.2     1  UNL1        0.0224
     14 C         142.5676  141.2755  168.8746 C.2     1  UNL1        0.0304
     15 C         143.4442  142.3565  169.4340 C.3     1  UNL1        0.0493
     16 C         142.8136  142.8559  170.7001 C.3     1  UNL1        0.0748
     17 C         141.5472  142.0834  170.9231 C.2     1  UNL1        0.1704
     18 O         140.5993  142.2571  172.0725 O.2     1  UNL1       -0.2916
     19 C         143.9820  140.3234  160.8680 C.3     1  UNL1        0.1063
     20 C         142.8757  140.7683  159.9580 C.3     1  UNL1        0.1483
     21 O         142.9751  140.5239  158.4814 O.3     1  UNL1       -0.3786
     22 H         142.1827  140.8705  158.0422 H       1  UNL1        0.2108
     23 C         141.6700  141.4578  160.5246 C.ar    1  UNL1        0.0015
     24 C         141.6407  142.9540  160.6272 C.ar    1  UNL1       -0.0020
     25 C         140.4350  143.6434  161.1937 C.ar    1  UNL1        0.0060
     26 C         139.2587  142.8366  161.6577 C.ar    1  UNL1        0.0748
     27 C         139.2880  141.3404  161.5551 C.ar    1  UNL1        0.0233
     28 C         140.4937  140.6510  160.9886 C.ar    1  UNL1       -0.0238
     29 C         140.5230  139.1548  160.8860 C.3     1  UNL1        0.0306
     30 C         137.9891  140.8137  162.0893 C.3     1  UNL1        0.2352
     31 O         137.1570  141.9843  162.5220 O.3     1  UNL1       -0.4404
     32 C         137.9416  143.2345  162.2553 C.2     1  UNL1        0.3413
     33 O         137.4888  144.6366  162.5367 O.2     1  UNL1       -0.2449
@<TRIPOS>BOND
     1    12    13    1
     2    13    14    2
     3    14     1    1
     4     1     2    1
     5     2     3    1
     6     3     4    1
     7     4     5    1
     8     5     6    1
     9     6     7    1
    10     7    19    1
    11    19    20    1
    12    20    21    1
    13    20    23    1
    14    23    24   ar
    15    24    25   ar
    16    25    26   ar
    17    26    27   ar
    18    27    28   ar
    19    28    29    1
    20    27    30    1
    21    30    31    1
    22    31    32    1
    23    32    33    2
    24     7     8    1
    25     8     9    1
    26     4    10    1
    27    10    11    2
    28    14    15    1
    29    15    16    1
    30    16    17    1
    31    17    18    2
    32    17    13    1
    33    10     1   am
    34     9     4    1
    35    28    23   ar
    36    32    26    1
    37    21    22    1
@<TRIPOS>MOLECULE
*****
 33 37 0 0 0
SMALL
GASTEIGER

@<TRIPOS>ATOM
      1 N         142.2523  139.3876  166.9550 N.am    1  UNL1       -0.2625
      2 C         143.1096  138.4030  166.2162 C.3     1  UNL1        0.0983
      3 C         142.3701  137.9791  164.9819 C.3     1  UNL1        0.0306
      4 C         141.0558  138.7016  164.9578 C.3     1  UNL1        0.0737
      5 C         139.7853  139.4913  165.0687 C.3     1  UNL1        0.0260
      6 C         138.7293  139.3655  164.0109 C.3     1  UNL1        0.0727
      7 N         138.9437  138.4499  162.8422 N.3     1  UNL1       -0.2703
      8 C         140.2142  137.6602  162.7313 C.3     1  UNL1        0.0727
      9 C         141.2702  137.7861  163.7891 C.3     1  UNL1        0.0260
     10 C         140.9829  139.5721  166.1772 C.2     1  UNL1        0.2283
     11 O         139.8413  140.4696  166.5529 O.2     1  UNL1       -0.2746
     12 C         143.2258  142.4845  167.2871 C.3     1  UNL1        0.0350
     13 C         143.0502  141.4916  168.3976 C.2     1  UNL1        0.0224
     14 C         142.6028  140.0681  168.2450 C.2     1  UNL1        0.0304
     15 C         142.5673  139.4445  169.6087 C.3     1  UNL1        0.0493
     16 C         142.9928  140.4826  170.6043 C.3     1  UNL1        0.0748
     17 C         143.2913  141.7478  169.8558 C.2     1  UNL1        0.1704
     18 O         143.7503  143.0420  170.4594 O.2     1  UNL1       -0.2916
     19 C         137.8876  138.3241  161.7844 C.3     1  UNL1        0.1063
     20 C         137.6191  139.4686  160.8528 C.3     1  UNL1        0.1483
     21 O         136.2783  139.6002  160.1934 O.3     1  UNL1       -0.3786
     22 H         136.2722  140.3880  159.6275 H       1  UNL1        0.2108
     23 C         138.6915  140.4815  160.5805 C.ar    1  UNL1        0.0015
     24 C         139.7629  140.1870  159.5729 C.ar    1  UNL1       -0.0020
     25 C         140.8353  141.1998  159.3006 C.ar    1  UNL1        0.0060
     26 C         140.8362  142.5072  160.0359 C.ar    1  UNL1        0.0748
     27 C         139.7648  142.8017  161.0435 C.ar    1  UNL1        0.0233
     28 C         138.6924  141.7889  161.3158 C.ar    1  UNL1       -0.0238
     29 C         137.6210  142.0834  162.3234 C.3     1  UNL1        0.0306
     30 C         140.0230  144.1668  161.6091 C.3     1  UNL1        0.2352
     31 O         141.2541  144.7159  160.9511 O.3     1  UNL1       -0.4404
     32 C         141.7566  143.6902  159.9788 C.2     1  UNL1        0.3413
     33 O         142.9671  143.8240  159.1031 O.2     1  UNL1       -0.2449
@<TRIPOS>BOND
     1    12    13    1
     2    13    14    2
     3    14     1    1
     4     1     2    1
     5     2     3    1
     6     3     4    1
     7     4     5    1
     8     5     6    1
     9     6     7    1
    10     7    19    1
    11    19    20    1
    12    20    21    1
    13    20    23    1
    14    23    24   ar
    15    24    25   ar
    16    25    26   ar
    17    26    27   ar
    18    27    28   ar
    19    28    29    1
    20    27    30    1
    21    30    31    1
    22    31    32    1
    23    32    33    2
    24     7     8    1
    25     8     9    1
    26     4    10    1
    27    10    11    2
    28    14    15    1
    29    15    16    1
    30    16    17    1
    31    17    18    2
    32    17    13    1
    33    10     1   am
    34     9     4    1
    35    28    23   ar
    36    32    26    1
    37    21    22    1
@<TRIPOS>MOLECULE
*****
 33 37 0 0 0
SMALL
GASTEIGER

@<TRIPOS>ATOM
      1 N         140.7746  139.9532  167.1532 N.am    1  UNL1       -0.2625
      2 C         139.2890  139.7907  167.2828 C.3     1  UNL1        0.0983
      3 C         138.7512  139.3650  165.9489 C.3     1  UNL1        0.0306
      4 C         139.9043  139.2643  164.9947 C.3     1  UNL1        0.0737
      5 C         141.1493  139.2076  164.1602 C.3     1  UNL1        0.0260
      6 C         141.0664  138.8127  162.7155 C.3     1  UNL1        0.0727
      7 N         139.7385  138.4746  162.1054 N.3     1  UNL1       -0.2703
      8 C         138.4934  138.5314  162.9399 C.3     1  UNL1        0.0727
      9 C         138.5763  138.9262  164.3846 C.3     1  UNL1        0.0260
     10 C         141.1548  139.6278  165.7391 C.2     1  UNL1        0.2283
     11 O         142.5421  139.6603  165.1694 O.2     1  UNL1       -0.2746
     12 C         142.7694  142.5350  167.0894 C.3     1  UNL1        0.0350
     13 C         142.6317  141.5548  168.2165 C.2     1  UNL1        0.0224
     14 C         141.7148  140.3681  168.2458 C.2     1  UNL1        0.0304
     15 C         141.9031  139.6691  169.5595 C.3     1  UNL1        0.0493
     16 C         142.9365  140.4239  170.3422 C.3     1  UNL1        0.0748
     17 C         143.3868  141.5893  169.5122 C.2     1  UNL1        0.1704
     18 O         144.4121  142.6100  169.9082 O.2     1  UNL1       -0.2916
     19 C         139.6556  138.0798  160.6606 C.3     1  UNL1        0.1063
     20 C         139.4740  139.1301  159.6053 C.3     1  UNL1        0.1483
     21 O         139.1675  138.7290  158.1928 O.3     1  UNL1       -0.3786
     22 H         139.0815  139.5232  157.6425 H       1  UNL1        0.2108
     23 C         139.5989  140.5817  159.9624 C.ar    1  UNL1        0.0015
     24 C         138.4004  141.3394  160.4517 C.ar    1  UNL1       -0.0020
     25 C         138.5252  142.7909  160.8088 C.ar    1  UNL1        0.0060
     26 C         139.8486  143.4846  160.6767 C.ar    1  UNL1        0.0748
     27 C         141.0471  142.7269  160.1874 C.ar    1  UNL1        0.0233
     28 C         140.9222  141.2754  159.8303 C.ar    1  UNL1       -0.0238
     29 C         142.1207  140.5176  159.3410 C.3     1  UNL1        0.0306
     30 C         142.2126  143.6707  160.1598 C.3     1  UNL1        0.2352
     31 O         141.7345  145.0117  160.6320 O.3     1  UNL1       -0.4404
     32 C         140.2734  144.8967  160.9514 C.2     1  UNL1        0.3413
     33 O         139.3919  146.0001  161.4569 O.2     1  UNL1       -0.2449
@<TRIPOS>BOND
     1    12    13    1
     2    13    14    2
     3    14     1    1
     4     1     2    1
     5     2     3    1
     6     3     4    1
     7     4     5    1
     8     5     6    1
     9     6     7    1
    10     7    19    1
    11    19    20    1
    12    20    21    1
    13    20    23    1
    14    23    24   ar
    15    24    25   ar
    16    25    26   ar
    17    26    27   ar
    18    27    28   ar
    19    28    29    1
    20    27    30    1
    21    30    31    1
    22    31    32    1
    23    32    33    2
    24     7     8    1
    25     8     9    1
    26     4    10    1
    27    10    11    2
    28    14    15    1
    29    15    16    1
    30    16    17    1
    31    17    18    2
    32    17    13    1
    33    10     1   am
    34     9     4    1
    35    28    23   ar
    36    32    26    1
    37    21    22    1
@<TRIPOS>MOLECULE
*****
 33 37 0 0 0
SMALL
GASTEIGER

@<TRIPOS>ATOM
      1 N         142.5814  138.4992  159.7193 N.am    1  UNL1       -0.2625
      2 C         143.7888  139.3894  159.7223 C.3     1  UNL1        0.0983
      3 C         144.2160  139.5864  161.1466 C.3     1  UNL1        0.0306
      4 C         143.2727  138.8179  162.0240 C.3     1  UNL1        0.0737
      5 C         142.2556  138.0060  162.7698 C.3     1  UNL1        0.0260
      6 C         142.3125  137.9239  164.2665 C.3     1  UNL1        0.0727
      7 N         143.3866  138.6538  165.0173 N.3     1  UNL1       -0.2703
      8 C         144.4037  139.4657  164.2715 C.3     1  UNL1        0.0727
      9 C         144.3468  139.5478  162.7749 C.3     1  UNL1        0.0260
     10 C         142.2625  138.1461  161.1419 C.2     1  UNL1        0.2283
     11 O         141.1318  137.2741  161.6017 O.2     1  UNL1       -0.2746
     12 C         139.4746  139.2077  159.0159 C.3     1  UNL1        0.0350
     13 C         140.3977  138.3681  158.1835 C.2     1  UNL1        0.0224
     14 C         141.8257  138.0425  158.5068 C.2     1  UNL1        0.0304
     15 C         142.3655  137.1798  157.4048 C.3     1  UNL1        0.0493
     16 C         141.2709  136.9724  156.4003 C.3     1  UNL1        0.0748
     17 C         140.0548  137.7067  156.8816 C.2     1  UNL1        0.1704
     18 O         138.7286  137.7689  156.1836 O.2     1  UNL1       -0.2916
     19 C         143.4435  138.5716  166.5140 C.3     1  UNL1        0.1063
     20 C         142.6712  139.5497  167.3487 C.3     1  UNL1        0.1483
     21 O         142.9628  139.6794  168.8144 O.3     1  UNL1       -0.3786
     22 H         142.3792  140.3503  169.2020 H       1  UNL1        0.2108
     23 C         141.6072  140.3982  166.7178 C.ar    1  UNL1        0.0015
     24 C         140.1985  139.8907  166.6276 C.ar    1  UNL1       -0.0020
     25 C         139.1346  140.7391  165.9967 C.ar    1  UNL1        0.0060
     26 C         139.4792  142.0951  165.4560 C.ar    1  UNL1        0.0748
     27 C         140.8879  142.6027  165.5462 C.ar    1  UNL1        0.0233
     28 C         141.9518  141.7543  166.1771 C.ar    1  UNL1       -0.0238
     29 C         143.3605  142.2618  166.2673 C.3     1  UNL1        0.0306
     30 C         140.9281  143.9700  164.9307 C.3     1  UNL1        0.2352
     31 O         139.5444  144.3075  164.4601 O.3     1  UNL1       -0.4404
     32 C         138.6490  143.1487  164.7847 C.2     1  UNL1        0.3413
     33 O         137.1810  143.0593  164.4899 O.2     1  UNL1       -0.2449
@<TRIPOS>BOND
     1    12    13    1
     2    13    14    2
     3    14     1    1
     4     1     2    1
     5     2     3    1
     6     3     4    1
     7     4     5    1
     8     5     6    1
     9     6     7    1
    10     7    19    1
    11    19    20    1
    12    20    21    1
    13    20    23    1
    14    23    24   ar
    15    24    25   ar
    16    25    26   ar
    17    26    27   ar
    18    27    28   ar
    19    28    29    1
    20    27    30    1
    21    30    31    1
    22    31    32    1
    23    32    33    2
    24     7     8    1
    25     8     9    1
    26     4    10    1
    27    10    11    2
    28    14    15    1
    29    15    16    1
    30    16    17    1
    31    17    18    2
    32    17    13    1
    33    10     1   am
    34     9     4    1
    35    28    23   ar
    36    32    26    1
    37    21    22    1
@<TRIPOS>MOLECULE
*****
 33 37 0 0 0
SMALL
GASTEIGER

@<TRIPOS>ATOM
      1 N         141.8949  140.0859  167.3566 N.am    1  UNL1       -0.2625
      2 C         142.9156  139.0481  166.9942 C.3     1  UNL1        0.0983
      3 C         142.5010  138.4241  165.6947 C.3     1  UNL1        0.0306
      4 C         141.2240  139.0762  165.2539 C.3     1  UNL1        0.0737
      5 C         139.9563  139.8155  164.9434 C.3     1  UNL1        0.0260
      6 C         139.1888  139.4966  163.6947 C.3     1  UNL1        0.0727
      7 N         139.6890  138.4384  162.7566 N.3     1  UNL1       -0.2703
      8 C         140.9566  137.6991  163.0671 C.3     1  UNL1        0.0727
      9 C         141.7242  138.0181  164.3157 C.3     1  UNL1        0.0260
     10 C         140.8495  140.1033  166.2810 C.2     1  UNL1        0.2283
     11 O         139.6416  140.9917  166.2398 O.2     1  UNL1       -0.2746
     12 C         139.6435  140.1268  169.7185 C.3     1  UNL1        0.0350
     13 C         140.8811  140.9727  169.6654 C.2     1  UNL1        0.0224
     14 C         141.9159  140.9539  168.5798 C.2     1  UNL1        0.0304
     15 C         142.9756  141.9554  168.9320 C.3     1  UNL1        0.0493
     16 C         142.5956  142.5932  170.2354 C.3     1  UNL1        0.0748
     17 C         141.3011  141.9859  170.6886 C.2     1  UNL1        0.1704
     18 O         140.5573  142.3310  171.9446 O.2     1  UNL1       -0.2916
     19 C         138.9213  138.1195  161.5079 C.3     1  UNL1        0.1063
     20 C         138.9630  139.0609  160.3409 C.3     1  UNL1        0.1483
     21 O         137.6897  139.6367  159.7959 O.3     1  UNL1       -0.3786
     22 H         137.8928  140.2209  159.0487 H       1  UNL1        0.2108
     23 C         140.2781  139.4265  159.7188 C.ar    1  UNL1        0.0015
     24 C         140.9168  138.5072  158.7202 C.ar    1  UNL1       -0.0020
     25 C         142.2318  138.8727  158.0981 C.ar    1  UNL1        0.0060
     26 C         142.9081  140.1575  158.4745 C.ar    1  UNL1        0.0748
     27 C         142.2695  141.0768  159.4730 C.ar    1  UNL1        0.0233
     28 C         140.9545  140.7113  160.0951 C.ar    1  UNL1       -0.0238
     29 C         140.3158  141.6306  161.0937 C.3     1  UNL1        0.0306
     30 C         143.1656  142.2671  159.6466 C.3     1  UNL1        0.2352
     31 O         144.3581  142.0835  158.7554 O.3     1  UNL1       -0.4404
     32 C         144.1990  140.7797  158.0310 C.2     1  UNL1        0.3413
     33 O         145.1616  140.1998  157.0375 O.2     1  UNL1       -0.2449
@<TRIPOS>BOND
     1    12    13    1
     2    13    14    2
     3    14     1    1
     4     1     2    1
     5     2     3    1
     6     3     4    1
     7     4     5    1
     8     5     6    1
     9     6     7    1
    10     7    19    1
    11    19    20    1
    12    20    21    1
    13    20    23    1
    14    23    24   ar
    15    24    25   ar
    16    25    26   ar
    17    26    27   ar
    18    27    28   ar
    19    28    29    1
    20    27    30    1
    21    30    31    1
    22    31    32    1
    23    32    33    2
    24     7     8    1
    25     8     9    1
    26     4    10    1
    27    10    11    2
    28    14    15    1
    29    15    16    1
    30    16    17    1
    31    17    18    2
    32    17    13    1
    33    10     1   am
    34     9     4    1
    35    28    23   ar
    36    32    26    1
    37    21    22    1
@<TRIPOS>MOLECULE
*****
 33 37 0 0 0
SMALL
GASTEIGER

@<TRIPOS>ATOM
      1 N         138.4079  140.2688  159.5605 N.am    1  UNL1       -0.2625
      2 C         139.0158  138.8982  159.5147 C.3     1  UNL1        0.0983
      3 C         139.1390  138.3986  160.9237 C.3     1  UNL1        0.0306
      4 C         138.6074  139.4604  161.8403 C.3     1  UNL1        0.0737
      5 C         138.0470  140.6072  162.6281 C.3     1  UNL1        0.0260
      6 C         137.9791  140.5272  164.1243 C.3     1  UNL1        0.0727
      7 N         138.4716  139.3002  164.8329 N.3     1  UNL1       -0.2703
      8 C         139.0320  138.1533  164.0451 C.3     1  UNL1        0.0727
      9 C         139.0998  138.2334  162.5488 C.3     1  UNL1        0.0260
     10 C         138.1555  140.6162  160.9978 C.2     1  UNL1        0.2283
     11 O         137.5564  141.8949  161.5037 O.2     1  UNL1       -0.2746
     12 C         139.8416  143.1144  158.8559 C.3     1  UNL1        0.0350
     13 C         138.7645  142.4471  158.0530 C.2     1  UNL1        0.0224
     14 C         138.1055  141.1392  158.3768 C.2     1  UNL1        0.0304
     15 C         137.0911  140.8543  157.3093 C.3     1  UNL1        0.0493
     16 C         137.1231  141.9863  156.3256 C.3     1  UNL1        0.0748
     17 C         138.1573  142.9707  156.7852 C.2     1  UNL1        0.1704
     18 O         138.5206  144.2534  156.0978 O.2     1  UNL1       -0.2916
     19 C         138.4037  139.2202  166.3293 C.3     1  UNL1        0.1063
     20 C         139.5612  139.6913  167.1588 C.3     1  UNL1        0.1483
     21 O         139.4374  139.7534  168.6524 O.3     1  UNL1       -0.3786
     22 H         140.2692  140.0766  169.0326 H       1  UNL1        0.2108
     23 C         140.8426  140.1003  166.4948 C.ar    1  UNL1        0.0015
     24 C         141.9038  139.0770  166.2180 C.ar    1  UNL1       -0.0020
     25 C         143.1851  139.4860  165.5540 C.ar    1  UNL1        0.0060
     26 C         143.4052  140.9183  165.1668 C.ar    1  UNL1        0.0748
     27 C         142.3440  141.9416  165.4435 C.ar    1  UNL1        0.0233
     28 C         141.0627  141.5326  166.1075 C.ar    1  UNL1       -0.0238
     29 C         140.0014  142.5560  166.3843 C.3     1  UNL1        0.0306
     30 C         142.8405  143.2689  164.9518 C.3     1  UNL1        0.2352
     31 O         144.2086  143.0659  164.3711 O.3     1  UNL1       -0.4404
     32 C         144.5576  141.6131  164.5040 C.2     1  UNL1        0.3413
     33 O         145.8347  140.9684  164.0533 O.2     1  UNL1       -0.2449
@<TRIPOS>BOND
     1    12    13    1
     2    13    14    2
     3    14     1    1
     4     1     2    1
     5     2     3    1
     6     3     4    1
     7     4     5    1
     8     5     6    1
     9     6     7    1
    10     7    19    1
    11    19    20    1
    12    20    21    1
    13    20    23    1
    14    23    24   ar
    15    24    25   ar
    16    25    26   ar
    17    26    27   ar
    18    27    28   ar
    19    28    29    1
    20    27    30    1
    21    30    31    1
    22    31    32    1
    23    32    33    2
    24     7     8    1
    25     8     9    1
    26     4    10    1
    27    10    11    2
    28    14    15    1
    29    15    16    1
    30    16    17    1
    31    17    18    2
    32    17    13    1
    33    10     1   am
    34     9     4    1
    35    28    23   ar
    36    32    26    1
    37    21    22    1
@<TRIPOS>MOLECULE
*****
 33 37 0 0 0
SMALL
GASTEIGER

@<TRIPOS>ATOM
      1 N         140.2234  140.5929  167.2856 N.am    1  UNL1       -0.2625
      2 C         139.0800  139.6770  166.9632 C.3     1  UNL1        0.0983
      3 C         139.4208  138.9353  165.7047 C.3     1  UNL1        0.0306
      4 C         140.7749  139.3928  165.2493 C.3     1  UNL1        0.0737
      5 C         142.1300  139.9449  164.9192 C.3     1  UNL1        0.0260
      6 C         142.8598  139.4627  163.7007 C.3     1  UNL1        0.0727
      7 N         142.2346  138.4284  162.8123 N.3     1  UNL1       -0.2703
      8 C         140.8795  137.8763  163.1423 C.3     1  UNL1        0.0727
      9 C         140.1497  138.3585  164.3608 C.3     1  UNL1        0.0260
     10 C         141.2709  140.4173  166.2263 C.2     1  UNL1        0.2283
     11 O         142.5838  141.1393  166.1564 O.2     1  UNL1       -0.2746
     12 C         140.1986  139.7153  170.4286 C.3     1  UNL1        0.0350
     13 C         140.2936  141.1180  169.9056 C.2     1  UNL1        0.0224
     14 C         140.3049  141.5213  168.4609 C.2     1  UNL1        0.0304
     15 C         140.4122  143.0161  168.3977 C.3     1  UNL1        0.0493
     16 C         140.4671  143.5367  169.8035 C.3     1  UNL1        0.0748
     17 C         140.3938  142.3635  170.7353 C.2     1  UNL1        0.1704
     18 O         140.4167  142.4251  172.2339 O.2     1  UNL1       -0.2916
     19 C         142.9645  137.9462  161.5937 C.3     1  UNL1        0.1063
     20 C         142.9906  138.7884  160.3528 C.3     1  UNL1        0.1483
     21 O         144.2996  139.1253  159.7024 O.3     1  UNL1       -0.3786
     22 H         144.1393  139.6723  158.9175 H       1  UNL1        0.2108
     23 C         141.7076  139.2938  159.7622 C.ar    1  UNL1        0.0015
     24 C         140.8558  138.3831  158.9285 C.ar    1  UNL1       -0.0020
     25 C         139.5730  138.8885  158.3379 C.ar    1  UNL1        0.0060
     26 C         139.1419  140.3044  158.5811 C.ar    1  UNL1        0.0748
     27 C         139.9937  141.2151  159.4148 C.ar    1  UNL1        0.0233
     28 C         141.2766  140.7097  160.0054 C.ar    1  UNL1       -0.0238
     29 C         142.1284  141.6204  160.8392 C.3     1  UNL1        0.0306
     30 C         139.3158  142.5515  159.4817 C.3     1  UNL1        0.2352
     31 O         138.0450  142.4668  158.6893 O.3     1  UNL1       -0.4404
     32 C         137.9375  141.0780  158.1327 C.2     1  UNL1        0.3413
     33 O         136.8216  140.5547  157.2778 O.2     1  UNL1       -0.2449
@<TRIPOS>BOND
     1    12    13    1
     2    13    14    2
     3    14     1    1
     4     1     2    1
     5     2     3    1
     6     3     4    1
     7     4     5    1
     8     5     6    1
     9     6     7    1
    10     7    19    1
    11    19    20    1
    12    20    21    1
    13    20    23    1
    14    23    24   ar
    15    24    25   ar
    16    25    26   ar
    17    26    27   ar
    18    27    28   ar
    19    28    29    1
    20    27    30    1
    21    30    31    1
    22    31    32    1
    23    32    33    2
    24     7     8    1
    25     8     9    1
    26     4    10    1
    27    10    11    2
    28    14    15    1
    29    15    16    1
    30    16    17    1
    31    17    18    2
    32    17    13    1
    33    10     1   am
    34     9     4    1
    35    28    23   ar
    36    32    26    1
    37    21    22    1
@<TRIPOS>MOLECULE
*****
 33 37 0 0 0
SMALL
GASTEIGER

@<TRIPOS>ATOM
      1 N         142.6015  138.5265  159.5513 N.am    1  UNL1       -0.2625
      2 C         143.7622  138.5250  160.5015 C.3     1  UNL1        0.0983
      3 C         143.2254  138.3303  161.8886 C.3     1  UNL1        0.0306
      4 C         141.7329  138.2114  161.7957 C.3     1  UNL1        0.0737
      5 C         140.2571  138.1105  161.5476 C.3     1  UNL1        0.0260
      6 C         139.3156  137.9062  162.6973 C.3     1  UNL1        0.0727
      7 N         139.8500  137.8028  164.0951 N.3     1  UNL1       -0.2703
      8 C         141.3259  137.9037  164.3431 C.3     1  UNL1        0.0727
      9 C         142.2674  138.1079  163.1934 C.3     1  UNL1        0.0260
     10 C         141.3474  138.3327  160.3511 C.2     1  UNL1        0.2283
     11 O         139.9526  138.2710  159.8027 O.2     1  UNL1       -0.2746
     12 C         142.4230  141.3496  157.9241 C.3     1  UNL1        0.0350
     13 C         142.5989  139.9903  157.3147 C.2     1  UNL1        0.0224
     14 C         142.6810  138.6927  158.0626 C.2     1  UNL1        0.0304
     15 C         142.8564  137.5904  157.0606 C.3     1  UNL1        0.0493
     16 C         142.8828  138.2067  155.6934 C.3     1  UNL1        0.0748
     17 C         142.7237  139.6900  155.8504 C.2     1  UNL1        0.1704
     18 O         142.6944  140.6962  154.7384 O.2     1  UNL1       -0.2916
     19 C         138.9085  137.5985  165.2448 C.3     1  UNL1        0.1063
     20 C         138.1674  138.7669  165.8241 C.3     1  UNL1        0.1483
     21 O         137.2927  138.5781  167.0279 O.3     1  UNL1       -0.3786
     22 H         136.8903  139.4265  167.2714 H       1  UNL1        0.2108
     23 C         138.3011  140.1242  165.1995 C.ar    1  UNL1        0.0015
     24 C         137.4605  140.4895  164.0121 C.ar    1  UNL1       -0.0020
     25 C         137.5942  141.8467  163.3876 C.ar    1  UNL1        0.0060
     26 C         138.5684  142.8386  163.9505 C.ar    1  UNL1        0.0748
     27 C         139.4090  142.4733  165.1379 C.ar    1  UNL1        0.0233
     28 C         139.2753  141.1161  165.7624 C.ar    1  UNL1       -0.0238
     29 C         140.1159  140.7509  166.9499 C.3     1  UNL1        0.0306
     30 C         140.2771  143.6504  165.4710 C.3     1  UNL1        0.2352
     31 O         139.9730  144.7431  164.4894 O.3     1  UNL1       -0.4404
     32 C         138.9170  144.2414  163.5497 C.2     1  UNL1        0.3413
     33 O         138.3152  145.0079  162.4094 O.2     1  UNL1       -0.2449
@<TRIPOS>BOND
     1    12    13    1
     2    13    14    2
     3    14     1    1
     4     1     2    1
     5     2     3    1
     6     3     4    1
     7     4     5    1
     8     5     6    1
     9     6     7    1
    10     7    19    1
    11    19    20    1
    12    20    21    1
    13    20    23    1
    14    23    24   ar
    15    24    25   ar
    16    25    26   ar
    17    26    27   ar
    18    27    28   ar
    19    28    29    1
    20    27    30    1
    21    30    31    1
    22    31    32    1
    23    32    33    2
    24     7     8    1
    25     8     9    1
    26     4    10    1
    27    10    11    2
    28    14    15    1
    29    15    16    1
    30    16    17    1
    31    17    18    2
    32    17    13    1
    33    10     1   am
    34     9     4    1
    35    28    23   ar
    36    32    26    1
    37    21    22    1
