@<TRIPOS>MOLECULE
*****
 35 39 0 0 0
SMALL
GASTEIGER

@<TRIPOS>ATOM
      1 C         139.5340  139.8366  165.6131 C.3     1  UNL1        0.2321
      2 N         138.5164  138.7459  165.7707 N.2     1  UNL1       -0.0614
      3 C         138.0665  138.7351  167.2016 C.2     1  UNL1        0.3157
      4 N         137.0546  137.8038  167.8007 N.pl3   1  UNL1       -0.2464
      5 C         138.8060  139.8191  167.9283 C.ar    1  UNL1        0.1094
      6 C         138.7706  140.2742  169.3571 C.ar    1  UNL1        0.1470
      7 F         137.8636  139.5934  170.3389 F       1  UNL1       -0.2039
      8 C         139.6423  141.4101  169.8042 C.ar    1  UNL1        0.0299
      9 C         140.5493  142.0909  168.8224 C.ar    1  UNL1        0.0021
     10 C         140.5847  141.6357  167.3936 C.ar    1  UNL1        0.0008
     11 C         139.7130  140.4998  166.9465 C.ar    1  UNL1        0.0390
     12 H         136.6209  137.1211  167.2393 H       1  UNL1        0.2884
     13 H         136.8243  137.8752  168.7552 H       1  UNL1        0.2884
     14 N         140.8344  138.2628  162.2098 N.ar    1  UNL1       -0.2946
     15 C         140.7991  138.7180  163.6386 C.ar    1  UNL1        0.0786
     16 C         139.5693  139.3814  164.1842 C.ar    1  UNL1        0.0468
     17 C         138.3750  139.5896  163.3010 C.ar    1  UNL1        0.0023
     18 C         138.4103  139.1344  161.8722 C.ar    1  UNL1        0.0342
     19 C         137.2159  139.3426  160.9889 C.3     1  UNL1        0.0360
     20 C         139.6401  138.4710  161.3266 C.ar    1  UNL1        0.2568
     21 O         139.6754  138.0158  159.8977 O.2     1  UNL1       -0.2673
     22 C         143.4214  138.1401  162.0041 C.3     1  UNL1        0.0266
     23 C         142.0642  137.5994  161.6642 C.3     1  UNL1        0.1091
     24 C         140.5590  140.8321  165.1567 C.ar    1  UNL1        0.0297
     25 C         141.9629  140.7563  165.6795 C.ar    1  UNL1        0.0004
     26 C         142.9880  141.7519  165.2231 C.ar    1  UNL1       -0.0002
     27 C         142.6090  142.8232  164.2439 C.ar    1  UNL1        0.0001
     28 C         141.2051  142.8990  163.7212 C.ar    1  UNL1        0.0028
     29 C         140.1801  141.9035  164.1776 C.ar    1  UNL1        0.0005
     30 C         140.8261  143.9703  162.7421 C.ar    1  UNL1        0.0384
     31 C         139.5381  144.7200  162.9120 C.ar    1  UNL1        0.1022
     32 N         139.1590  145.7914  161.9329 N.ar    1  UNL1       -0.2224
     33 C         140.0681  146.1130  160.7839 C.ar    1  UNL1        0.1989
     34 N         141.3562  145.3632  160.6141 N.ar    1  UNL1       -0.2224
     35 C         141.7352  144.2919  161.5931 C.ar    1  UNL1        0.1022
@<TRIPOS>BOND
     1    22    23    1
     2    23    14    1
     3    14    15   ar
     4    15    16   ar
     5    16     1    1
     6     1    24    1
     7    24    25   ar
     8    25    26   ar
     9    26    27   ar
    10    27    28   ar
    11    28    30    1
    12    30    31   ar
    13    31    32   ar
    14    32    33   ar
    15    33    34   ar
    16    34    35   ar
    17    28    29   ar
    18     1     2    1
    19     2     3    2
    20     3     4    1
    21     3     5    1
    22     5     6   ar
    23     6     7    1
    24     6     8   ar
    25     8     9   ar
    26     9    10   ar
    27    10    11   ar
    28    16    17   ar
    29    17    18   ar
    30    18    19    1
    31    18    20   ar
    32    20    21    2
    33    20    14   ar
    34    11     1    1
    35    29    24   ar
    36    11     5   ar
    37    35    30   ar
    38     4    12    1
    39     4    13    1
@<TRIPOS>MOLECULE
*****
 35 39 0 0 0
SMALL
GASTEIGER

@<TRIPOS>ATOM
      1 C         141.6474  139.2492  165.3571 C.3     1  UNL1        0.2321
      2 N         142.8478  138.3499  165.3673 N.2     1  UNL1       -0.0614
      3 C         143.3345  138.2425  166.7821 C.2     1  UNL1        0.3157
      4 N         144.5138  137.4425  167.2505 N.pl3   1  UNL1       -0.2464
      5 C         142.4349  139.0755  167.6463 C.ar    1  UNL1        0.1094
      6 C         142.4305  139.3478  169.1213 C.ar    1  UNL1        0.1470
      7 F         143.4732  138.7256  170.0020 F       1  UNL1       -0.2039
      8 C         141.3833  140.2423  169.7157 C.ar    1  UNL1        0.0299
      9 C         140.3406  140.8646  168.8350 C.ar    1  UNL1        0.0021
     10 C         140.3451  140.5922  167.3599 C.ar    1  UNL1        0.0008
     11 C         141.3922  139.6977  166.7656 C.ar    1  UNL1        0.0390
     12 H         145.0458  136.9251  166.6036 H       1  UNL1        0.2884
     13 H         144.7557  137.4349  168.2048 H       1  UNL1        0.2884
     14 N         140.3781  138.3522  161.7055 N.ar    1  UNL1       -0.2946
     15 C         140.3737  138.6246  163.1805 C.ar    1  UNL1        0.0786
     16 C         141.6519  138.9769  163.8820 C.ar    1  UNL1        0.0468
     17 C         142.9345  139.0568  163.1085 C.ar    1  UNL1        0.0023
     18 C         142.9389  138.7845  161.6334 C.ar    1  UNL1        0.0342
     19 C         144.2216  138.8645  160.8598 C.3     1  UNL1        0.0360
     20 C         141.6607  138.4322  160.9320 C.ar    1  UNL1        0.2568
     21 O         141.6652  138.1598  159.4568 O.2     1  UNL1       -0.2673
     22 C         137.7941  138.5380  161.5093 C.3     1  UNL1        0.0266
     23 C         139.0999  137.9999  161.0040 C.3     1  UNL1        0.1091
     24 C         140.4479  140.0917  165.0385 C.ar    1  UNL1        0.0297
     25 C         139.0744  139.6073  165.3977 C.ar    1  UNL1        0.0004
     26 C         137.8749  140.4498  165.0790 C.ar    1  UNL1       -0.0002
     27 C         138.0489  141.7766  164.4013 C.ar    1  UNL1        0.0001
     28 C         139.4224  142.2610  164.0422 C.ar    1  UNL1        0.0028
     29 C         140.6219  141.4186  164.3608 C.ar    1  UNL1        0.0005
     30 C         139.5964  143.5878  163.3646 C.ar    1  UNL1        0.0384
     31 C         138.4180  144.2675  162.7328 C.ar    1  UNL1        0.1022
     32 N         138.5919  145.5944  162.0550 N.ar    1  UNL1       -0.2224
     33 C         139.9443  146.2415  162.0091 C.ar    1  UNL1        0.1989
     34 N         141.1228  145.5617  162.6410 N.ar    1  UNL1       -0.2224
     35 C         140.9489  144.2349  163.3187 C.ar    1  UNL1        0.1022
@<TRIPOS>BOND
     1    22    23    1
     2    23    14    1
     3    14    15   ar
     4    15    16   ar
     5    16     1    1
     6     1    24    1
     7    24    25   ar
     8    25    26   ar
     9    26    27   ar
    10    27    28   ar
    11    28    30    1
    12    30    31   ar
    13    31    32   ar
    14    32    33   ar
    15    33    34   ar
    16    34    35   ar
    17    28    29   ar
    18     1     2    1
    19     2     3    2
    20     3     4    1
    21     3     5    1
    22     5     6   ar
    23     6     7    1
    24     6     8   ar
    25     8     9   ar
    26     9    10   ar
    27    10    11   ar
    28    16    17   ar
    29    17    18   ar
    30    18    19    1
    31    18    20   ar
    32    20    21    2
    33    20    14   ar
    34    11     1    1
    35    29    24   ar
    36    11     5   ar
    37    35    30   ar
    38     4    12    1
    39     4    13    1
@<TRIPOS>MOLECULE
*****
 35 39 0 0 0
SMALL
GASTEIGER

@<TRIPOS>ATOM
      1 C         140.8338  140.6289  164.9914 C.3     1  UNL1        0.2321
      2 N         140.9612  141.6345  166.0971 N.2     1  UNL1       -0.0614
      3 C         140.0576  141.2097  167.2164 C.2     1  UNL1        0.3157
      4 N         139.8724  141.9270  168.5207 N.pl3   1  UNL1       -0.2464
      5 C         139.3717  139.9415  166.8025 C.ar    1  UNL1        0.1094
      6 C         138.3723  139.0672  167.5002 C.ar    1  UNL1        0.1470
      7 F         137.8925  139.4261  168.8753 F       1  UNL1       -0.2039
      8 C         137.8526  137.8340  166.8227 C.ar    1  UNL1        0.0299
      9 C         138.3323  137.4751  165.4475 C.ar    1  UNL1        0.0021
     10 C         139.3317  138.3494  164.7499 C.ar    1  UNL1        0.0008
     11 C         139.8514  139.5826  165.4274 C.ar    1  UNL1        0.0390
     12 H         140.3700  142.7572  168.7009 H       1  UNL1        0.2884
     13 H         139.2532  141.5677  169.1965 H       1  UNL1        0.2884
     14 N         142.3734  143.5993  162.8567 N.ar    1  UNL1       -0.2946
     15 C         141.3740  142.7249  163.5543 C.ar    1  UNL1        0.0786
     16 C         141.8333  141.5033  164.2938 C.ar    1  UNL1        0.0468
     17 C         143.2919  141.1561  164.3357 C.ar    1  UNL1        0.0023
     18 C         144.2913  142.0304  163.6380 C.ar    1  UNL1        0.0342
     19 C         145.7500  141.6832  163.6799 C.3     1  UNL1        0.0360
     20 C         143.8320  143.2520  162.8986 C.ar    1  UNL1        0.2568
     21 O         144.8315  144.1264  162.2009 O.2     1  UNL1       -0.2673
     22 C         140.6895  145.5573  162.5730 C.3     1  UNL1        0.0266
     23 C         141.9142  144.8208  162.1172 C.3     1  UNL1        0.1091
     24 C         140.9153  139.8062  163.7399 C.ar    1  UNL1        0.0297
     25 C         141.7338  138.5493  163.7206 C.ar    1  UNL1        0.0004
     26 C         141.8153  137.7265  162.4690 C.ar    1  UNL1       -0.0002
     27 C         141.0783  138.1605  161.2368 C.ar    1  UNL1        0.0001
     28 C         140.2597  139.4174  161.2561 C.ar    1  UNL1        0.0028
     29 C         140.1782  140.2402  162.5076 C.ar    1  UNL1        0.0005
     30 C         139.5227  139.8514  160.0239 C.ar    1  UNL1        0.0384
     31 C         138.8306  141.1819  159.9935 C.ar    1  UNL1        0.1022
     32 N         138.0936  141.6161  158.7614 N.ar    1  UNL1       -0.2224
     33 C         138.0485  140.7197  157.5595 C.ar    1  UNL1        0.1989
     34 N         138.7406  139.3892  157.5899 N.ar    1  UNL1       -0.2224
     35 C         139.4777  138.9550  158.8220 C.ar    1  UNL1        0.1022
@<TRIPOS>BOND
     1    22    23    1
     2    23    14    1
     3    14    15   ar
     4    15    16   ar
     5    16     1    1
     6     1    24    1
     7    24    25   ar
     8    25    26   ar
     9    26    27   ar
    10    27    28   ar
    11    28    30    1
    12    30    31   ar
    13    31    32   ar
    14    32    33   ar
    15    33    34   ar
    16    34    35   ar
    17    28    29   ar
    18     1     2    1
    19     2     3    2
    20     3     4    1
    21     3     5    1
    22     5     6   ar
    23     6     7    1
    24     6     8   ar
    25     8     9   ar
    26     9    10   ar
    27    10    11   ar
    28    16    17   ar
    29    17    18   ar
    30    18    19    1
    31    18    20   ar
    32    20    21    2
    33    20    14   ar
    34    11     1    1
    35    29    24   ar
    36    11     5   ar
    37    35    30   ar
    38     4    12    1
    39     4    13    1
@<TRIPOS>MOLECULE
*****
 35 39 0 0 0
SMALL
GASTEIGER

@<TRIPOS>ATOM
      1 C         141.1647  142.1120  166.9525 C.3     1  UNL1        0.2321
      2 N         140.4510  143.1413  167.7778 N.2     1  UNL1       -0.0614
      3 C         140.4699  142.6843  169.2063 C.2     1  UNL1        0.3157
      4 N         139.8689  143.4114  170.3726 N.pl3   1  UNL1       -0.2464
      5 C         141.1953  141.3726  169.2639 C.ar    1  UNL1        0.1094
      6 C         141.5203  140.4547  170.4048 C.ar    1  UNL1        0.1470
      7 F         141.0909  140.8084  171.7978 F       1  UNL1       -0.2039
      8 C         142.2747  139.1830  170.1527 C.ar    1  UNL1        0.0299
      9 C         142.7042  138.8293  168.7596 C.ar    1  UNL1        0.0021
     10 C         142.3792  139.7473  167.6188 C.ar    1  UNL1        0.0008
     11 C         141.6248  141.0189  167.8709 C.ar    1  UNL1        0.0390
     12 H         139.4103  144.2713  170.2333 H       1  UNL1        0.2884
     13 H         139.9332  143.0286  171.2774 H       1  UNL1        0.2884
     14 N         141.6196  144.6209  163.9113 N.ar    1  UNL1       -0.2946
     15 C         141.9445  143.7029  165.0521 C.ar    1  UNL1        0.0786
     16 C         140.8397  143.0301  165.8115 C.ar    1  UNL1        0.0468
     17 C         139.4099  143.2753  165.4301 C.ar    1  UNL1        0.0023
     18 C         139.0850  144.1933  164.2893 C.ar    1  UNL1        0.0342
     19 C         137.6551  144.4386  163.9078 C.3     1  UNL1        0.0360
     20 C         140.1898  144.8661  163.5298 C.ar    1  UNL1        0.2568
     21 O         139.8648  145.7842  162.3889 O.2     1  UNL1       -0.2673
     22 C         144.0060  144.5612  162.8861 C.3     1  UNL1        0.0266
     23 C         142.7244  145.2937  163.1519 C.3     1  UNL1        0.1091
     24 C         141.8105  141.2747  165.8886 C.ar    1  UNL1        0.0297
     25 C         143.2962  141.0676  165.8959 C.ar    1  UNL1        0.0004
     26 C         143.9419  140.2302  164.8320 C.ar    1  UNL1       -0.0002
     27 C         143.1021  139.6000  163.7608 C.ar    1  UNL1        0.0001
     28 C         141.6165  139.8071  163.7535 C.ar    1  UNL1        0.0028
     29 C         140.9707  140.6444  164.8173 C.ar    1  UNL1        0.0005
     30 C         140.7766  139.1769  162.6823 C.ar    1  UNL1        0.0384
     31 C         141.2677  139.1459  161.2653 C.ar    1  UNL1        0.1022
     32 N         140.4279  138.5158  160.1940 N.ar    1  UNL1       -0.2224
     33 C         139.0970  137.9165  160.5397 C.ar    1  UNL1        0.1989
     34 N         138.6059  137.9475  161.9568 N.ar    1  UNL1       -0.2224
     35 C         139.4457  138.5777  163.0280 C.ar    1  UNL1        0.1022
@<TRIPOS>BOND
     1    22    23    1
     2    23    14    1
     3    14    15   ar
     4    15    16   ar
     5    16     1    1
     6     1    24    1
     7    24    25   ar
     8    25    26   ar
     9    26    27   ar
    10    27    28   ar
    11    28    30    1
    12    30    31   ar
    13    31    32   ar
    14    32    33   ar
    15    33    34   ar
    16    34    35   ar
    17    28    29   ar
    18     1     2    1
    19     2     3    2
    20     3     4    1
    21     3     5    1
    22     5     6   ar
    23     6     7    1
    24     6     8   ar
    25     8     9   ar
    26     9    10   ar
    27    10    11   ar
    28    16    17   ar
    29    17    18   ar
    30    18    19    1
    31    18    20   ar
    32    20    21    2
    33    20    14   ar
    34    11     1    1
    35    29    24   ar
    36    11     5   ar
    37    35    30   ar
    38     4    12    1
    39     4    13    1
@<TRIPOS>MOLECULE
*****
 35 39 0 0 0
SMALL
GASTEIGER

@<TRIPOS>ATOM
      1 C         140.5364  140.7584  166.9928 C.3     1  UNL1        0.2321
      2 N         139.3606  140.1854  167.7271 N.2     1  UNL1       -0.0614
      3 C         139.5531  140.4526  169.1905 C.2     1  UNL1        0.3157
      4 N         138.6154  140.0520  170.2907 N.pl3   1  UNL1       -0.2464
      5 C         140.8478  141.1907  169.3607 C.ar    1  UNL1        0.1094
      6 C         141.5518  141.7150  170.5769 C.ar    1  UNL1        0.1470
      7 F         140.9441  141.5260  171.9352 F       1  UNL1       -0.2039
      8 C         142.8636  142.4284  170.4349 C.ar    1  UNL1        0.0299
      9 C         143.4714  142.6175  169.0766 C.ar    1  UNL1        0.0021
     10 C         142.7673  142.0931  167.8604 C.ar    1  UNL1        0.0008
     11 C         141.4555  141.3797  168.0024 C.ar    1  UNL1        0.0390
     12 H         137.7853  139.5674  170.0779 H       1  UNL1        0.2884
     13 H         138.8302  140.2736  171.2256 H       1  UNL1        0.2884
     14 N         138.1551  140.5811  163.8230 N.ar    1  UNL1       -0.2946
     15 C         138.8592  141.1054  165.0392 C.ar    1  UNL1        0.0786
     16 C         139.8323  140.2340  165.7766 C.ar    1  UNL1        0.0468
     17 C         140.1013  138.8382  165.2977 C.ar    1  UNL1        0.0023
     18 C         139.3972  138.3139  164.0815 C.ar    1  UNL1        0.0342
     19 C         139.6662  136.9180  163.6025 C.3     1  UNL1        0.0360
     20 C         138.4241  139.1853  163.3441 C.ar    1  UNL1        0.2568
     21 O         137.7199  138.6608  162.1278 O.2     1  UNL1       -0.2673
     22 C         137.6037  142.8104  162.6081 C.3     1  UNL1        0.0266
     23 C         137.1819  141.4525  163.0857 C.3     1  UNL1        0.1091
     24 C         141.5650  141.2218  166.0043 C.ar    1  UNL1        0.0297
     25 C         142.9686  140.6982  166.0812 C.ar    1  UNL1        0.0004
     26 C         143.9972  141.1616  165.0926 C.ar    1  UNL1       -0.0002
     27 C         143.6222  142.1485  164.0270 C.ar    1  UNL1        0.0001
     28 C         142.2186  142.6721  163.9501 C.ar    1  UNL1        0.0028
     29 C         141.1900  142.2087  164.9387 C.ar    1  UNL1        0.0005
     30 C         141.8436  143.6590  162.8846 C.ar    1  UNL1        0.0384
     31 C         142.5051  143.5982  161.5397 C.ar    1  UNL1        0.1022
     32 N         142.1302  144.5851  160.4741 N.ar    1  UNL1       -0.2224
     33 C         141.0937  145.6328  160.7534 C.ar    1  UNL1        0.1989
     34 N         140.4322  145.6936  162.0984 N.ar    1  UNL1       -0.2224
     35 C         140.8072  144.7068  163.1640 C.ar    1  UNL1        0.1022
@<TRIPOS>BOND
     1    22    23    1
     2    23    14    1
     3    14    15   ar
     4    15    16   ar
     5    16     1    1
     6     1    24    1
     7    24    25   ar
     8    25    26   ar
     9    26    27   ar
    10    27    28   ar
    11    28    30    1
    12    30    31   ar
    13    31    32   ar
    14    32    33   ar
    15    33    34   ar
    16    34    35   ar
    17    28    29   ar
    18     1     2    1
    19     2     3    2
    20     3     4    1
    21     3     5    1
    22     5     6   ar
    23     6     7    1
    24     6     8   ar
    25     8     9   ar
    26     9    10   ar
    27    10    11   ar
    28    16    17   ar
    29    17    18   ar
    30    18    19    1
    31    18    20   ar
    32    20    21    2
    33    20    14   ar
    34    11     1    1
    35    29    24   ar
    36    11     5   ar
    37    35    30   ar
    38     4    12    1
    39     4    13    1
@<TRIPOS>MOLECULE
*****
 35 39 0 0 0
SMALL
GASTEIGER

@<TRIPOS>ATOM
      1 C         140.9680  141.8724  162.4816 C.3     1  UNL1        0.2321
      2 N         141.8346  142.6044  161.5002 N.2     1  UNL1       -0.0614
      3 C         141.2752  143.9854  161.3278 C.2     1  UNL1        0.3157
      4 N         141.8306  145.0568  160.4369 N.pl3   1  UNL1       -0.2464
      5 C         140.0628  144.1070  162.2026 C.ar    1  UNL1        0.1094
      6 C         139.1072  145.2381  162.4420 C.ar    1  UNL1        0.1470
      7 F         139.2970  146.5440  161.7289 F       1  UNL1       -0.2039
      8 C         137.9617  145.0633  163.3945 C.ar    1  UNL1        0.0299
      9 C         137.7719  143.7574  164.1076 C.ar    1  UNL1        0.0021
     10 C         138.7274  142.6263  163.8682 C.ar    1  UNL1        0.0008
     11 C         139.8729  142.8011  162.9157 C.ar    1  UNL1        0.0390
     12 H         142.6353  144.8805  159.8978 H       1  UNL1        0.2884
     13 H         141.3904  145.9362  160.3913 H       1  UNL1        0.2884
     14 N         142.7573  138.7751  160.7626 N.ar    1  UNL1       -0.2946
     15 C         141.8017  139.9062  161.0021 C.ar    1  UNL1        0.0786
     16 C         141.9236  140.7413  162.2421 C.ar    1  UNL1        0.0468
     17 C         143.0011  140.4452  163.2428 C.ar    1  UNL1        0.0023
     18 C         143.9567  139.3141  163.0033 C.ar    1  UNL1        0.0342
     19 C         145.0343  139.0180  164.0039 C.3     1  UNL1        0.0360
     20 C         143.8348  138.4791  161.7632 C.ar    1  UNL1        0.2568
     21 O         144.7905  137.3479  161.5238 O.2     1  UNL1       -0.2673
     22 C         142.5779  138.5998  158.1767 C.3     1  UNL1        0.0266
     23 C         142.6354  137.9400  159.5225 C.3     1  UNL1        0.1091
     24 C         140.3011  140.9040  163.4129 C.ar    1  UNL1        0.0297
     25 C         139.2517  139.9661  162.8942 C.ar    1  UNL1        0.0004
     26 C         138.5848  138.9976  163.8257 C.ar    1  UNL1       -0.0002
     27 C         138.9674  138.9671  165.2757 C.ar    1  UNL1        0.0001
     28 C         140.0168  139.9050  165.7944 C.ar    1  UNL1        0.0028
     29 C         140.6837  140.8734  164.8631 C.ar    1  UNL1        0.0005
     30 C         140.3994  139.8745  167.2445 C.ar    1  UNL1        0.0384
     31 C         139.3361  139.9155  168.3017 C.ar    1  UNL1        0.1022
     32 N         139.7186  139.8850  169.7518 N.ar    1  UNL1       -0.2224
     33 C         141.1645  139.8135  170.1447 C.ar    1  UNL1        0.1989
     34 N         142.2278  139.7725  169.0874 N.ar    1  UNL1       -0.2224
     35 C         141.8453  139.8030  167.6373 C.ar    1  UNL1        0.1022
@<TRIPOS>BOND
     1    22    23    1
     2    23    14    1
     3    14    15   ar
     4    15    16   ar
     5    16     1    1
     6     1    24    1
     7    24    25   ar
     8    25    26   ar
     9    26    27   ar
    10    27    28   ar
    11    28    30    1
    12    30    31   ar
    13    31    32   ar
    14    32    33   ar
    15    33    34   ar
    16    34    35   ar
    17    28    29   ar
    18     1     2    1
    19     2     3    2
    20     3     4    1
    21     3     5    1
    22     5     6   ar
    23     6     7    1
    24     6     8   ar
    25     8     9   ar
    26     9    10   ar
    27    10    11   ar
    28    16    17   ar
    29    17    18   ar
    30    18    19    1
    31    18    20   ar
    32    20    21    2
    33    20    14   ar
    34    11     1    1
    35    29    24   ar
    36    11     5   ar
    37    35    30   ar
    38     4    12    1
    39     4    13    1
@<TRIPOS>MOLECULE
*****
 35 39 0 0 0
SMALL
GASTEIGER

@<TRIPOS>ATOM
      1 C         141.8235  141.9652  166.9318 C.3     1  UNL1        0.2321
      2 N         141.3321  143.0843  167.8014 N.2     1  UNL1       -0.0614
      3 C         141.3667  142.6142  169.2254 C.2     1  UNL1        0.3157
      4 N         140.9600  143.4134  170.4278 N.pl3   1  UNL1       -0.2464
      5 C         141.8795  141.2046  169.2359 C.ar    1  UNL1        0.1094
      6 C         142.1258  140.2345  170.3531 C.ar    1  UNL1        0.1470
      7 F         141.8435  140.6356  171.7706 F       1  UNL1       -0.2039
      8 C         142.6544  138.8633  170.0528 C.ar    1  UNL1        0.0299
      9 C         142.9367  138.4622  168.6352 C.ar    1  UNL1        0.0021
     10 C         142.6904  139.4323  167.5180 C.ar    1  UNL1        0.0008
     11 C         142.1618  140.8035  167.8184 C.ar    1  UNL1        0.0390
     12 H         140.6342  144.3360  170.3185 H       1  UNL1        0.2884
     13 H         141.0188  143.0154  171.3264 H       1  UNL1        0.2884
     14 N         139.9279  144.3013  164.3435 N.ar    1  UNL1       -0.2946
     15 C         140.1743  143.3312  165.4606 C.ar    1  UNL1        0.0786
     16 C         141.5772  142.9354  165.8146 C.ar    1  UNL1        0.0468
     17 C         142.7337  143.5098  165.0514 C.ar    1  UNL1        0.0023
     18 C         142.4873  144.4800  163.9343 C.ar    1  UNL1        0.0342
     19 C         143.6439  145.0545  163.1711 C.3     1  UNL1        0.0360
     20 C         141.0844  144.8757  163.5803 C.ar    1  UNL1        0.2568
     21 O         140.8381  145.8459  162.4631 O.2     1  UNL1       -0.2673
     22 C         137.7266  143.8575  163.0368 C.3     1  UNL1        0.0266
     23 C         138.5250  144.6971  163.9895 C.3     1  UNL1        0.1091
     24 C         142.2633  141.0490  165.8287 C.ar    1  UNL1        0.0297
     25 C         143.7132  140.6934  165.6823 C.ar    1  UNL1        0.0004
     26 C         144.1531  139.7771  164.5791 C.ar    1  UNL1       -0.0002
     27 C         143.1431  139.2164  163.6223 C.ar    1  UNL1        0.0001
     28 C         141.6932  139.5720  163.7687 C.ar    1  UNL1        0.0028
     29 C         141.2533  140.4882  164.8718 C.ar    1  UNL1        0.0005
     30 C         140.6831  139.0113  162.8119 C.ar    1  UNL1        0.0384
     31 C         140.9786  138.9817  161.3416 C.ar    1  UNL1        0.1022
     32 N         139.9686  138.4210  160.3847 N.ar    1  UNL1       -0.2224
     33 C         138.6631  137.8899  160.8982 C.ar    1  UNL1        0.1989
     34 N         138.3677  137.9195  162.3686 N.ar    1  UNL1       -0.2224
     35 C         139.3777  138.4802  163.3254 C.ar    1  UNL1        0.1022
@<TRIPOS>BOND
     1    22    23    1
     2    23    14    1
     3    14    15   ar
     4    15    16   ar
     5    16     1    1
     6     1    24    1
     7    24    25   ar
     8    25    26   ar
     9    26    27   ar
    10    27    28   ar
    11    28    30    1
    12    30    31   ar
    13    31    32   ar
    14    32    33   ar
    15    33    34   ar
    16    34    35   ar
    17    28    29   ar
    18     1     2    1
    19     2     3    2
    20     3     4    1
    21     3     5    1
    22     5     6   ar
    23     6     7    1
    24     6     8   ar
    25     8     9   ar
    26     9    10   ar
    27    10    11   ar
    28    16    17   ar
    29    17    18   ar
    30    18    19    1
    31    18    20   ar
    32    20    21    2
    33    20    14   ar
    34    11     1    1
    35    29    24   ar
    36    11     5   ar
    37    35    30   ar
    38     4    12    1
    39     4    13    1
@<TRIPOS>MOLECULE
*****
 35 39 0 0 0
SMALL
GASTEIGER

@<TRIPOS>ATOM
      1 C         142.4774  143.2059  159.8551 C.3     1  UNL1        0.2321
      2 N         141.9444  143.8525  158.6109 N.2     1  UNL1       -0.0614
      3 C         141.0003  144.9427  159.0231 C.2     1  UNL1        0.3157
      4 N         140.2401  145.8470  158.0987 N.pl3   1  UNL1       -0.2464
      5 C         140.9498  144.9700  160.5220 C.ar    1  UNL1        0.1094
      6 C         140.1904  145.8336  161.4851 C.ar    1  UNL1        0.1470
      7 F         139.2775  146.9070  160.9709 F       1  UNL1       -0.2039
      8 C         140.3440  145.6238  162.9624 C.ar    1  UNL1        0.0299
      9 C         141.2569  144.5504  163.4765 C.ar    1  UNL1        0.0021
     10 C         142.0162  143.6868  162.5135 C.ar    1  UNL1        0.0008
     11 C         141.8627  143.8966  161.0362 C.ar    1  UNL1        0.0390
     12 H         140.3401  145.7511  157.1240 H       1  UNL1        0.2884
     13 H         139.6413  146.5363  158.4668 H       1  UNL1        0.2884
     14 N         145.3109  141.9460  157.3784 N.ar    1  UNL1       -0.2946
     15 C         144.5516  142.8096  158.3415 C.ar    1  UNL1        0.0786
     16 C         143.2367  142.3423  158.8919 C.ar    1  UNL1        0.0468
     17 C         142.6813  141.0115  158.4791 C.ar    1  UNL1        0.0023
     18 C         143.4406  140.1480  157.5160 C.ar    1  UNL1        0.0342
     19 C         142.8851  138.8171  157.1032 C.3     1  UNL1        0.0360
     20 C         144.7554  140.6152  156.9656 C.ar    1  UNL1        0.2568
     21 O         145.5148  139.7516  156.0025 O.2     1  UNL1       -0.2673
     22 C         147.5854  143.1576  157.7084 C.3     1  UNL1        0.0266
     23 C         146.6258  142.4133  156.8280 C.3     1  UNL1        0.1091
     24 C         143.1691  142.3788  160.8979 C.ar    1  UNL1        0.0297
     25 C         144.5580  142.7354  161.3382 C.ar    1  UNL1        0.0004
     26 C         145.2497  141.9083  162.3811 C.ar    1  UNL1       -0.0002
     27 C         144.5525  140.7246  162.9835 C.ar    1  UNL1        0.0001
     28 C         143.1637  140.3680  162.5431 C.ar    1  UNL1        0.0028
     29 C         142.4719  141.1951  161.5003 C.ar    1  UNL1        0.0005
     30 C         142.4665  139.1844  163.1455 C.ar    1  UNL1        0.0384
     31 C         141.5932  138.3137  162.2916 C.ar    1  UNL1        0.1022
     32 N         140.8960  137.1300  162.8939 N.ar    1  UNL1       -0.2224
     33 C         141.0721  136.8170  164.3502 C.ar    1  UNL1        0.1989
     34 N         141.9455  137.6877  165.2042 N.ar    1  UNL1       -0.2224
     35 C         142.6427  138.8714  164.6019 C.ar    1  UNL1        0.1022
@<TRIPOS>BOND
     1    22    23    1
     2    23    14    1
     3    14    15   ar
     4    15    16   ar
     5    16     1    1
     6     1    24    1
     7    24    25   ar
     8    25    26   ar
     9    26    27   ar
    10    27    28   ar
    11    28    30    1
    12    30    31   ar
    13    31    32   ar
    14    32    33   ar
    15    33    34   ar
    16    34    35   ar
    17    28    29   ar
    18     1     2    1
    19     2     3    2
    20     3     4    1
    21     3     5    1
    22     5     6   ar
    23     6     7    1
    24     6     8   ar
    25     8     9   ar
    26     9    10   ar
    27    10    11   ar
    28    16    17   ar
    29    17    18   ar
    30    18    19    1
    31    18    20   ar
    32    20    21    2
    33    20    14   ar
    34    11     1    1
    35    29    24   ar
    36    11     5   ar
    37    35    30   ar
    38     4    12    1
    39     4    13    1
@<TRIPOS>MOLECULE
*****
 35 39 0 0 0
SMALL
GASTEIGER

@<TRIPOS>ATOM
      1 C         140.9085  141.8679  162.3728 C.3     1  UNL1        0.2321
      2 N         141.7858  142.6052  161.4050 N.2     1  UNL1       -0.0614
      3 C         141.2365  143.9917  161.2450 C.2     1  UNL1        0.3157
      4 N         141.8042  145.0695  160.3697 N.pl3   1  UNL1       -0.2464
      5 C         140.0196  144.1114  162.1139 C.ar    1  UNL1        0.1094
      6 C         139.0700  145.2460  162.3605 C.ar    1  UNL1        0.1470
      7 F         139.2727  146.5586  161.6634 F       1  UNL1       -0.2039
      8 C         137.9177  145.0679  163.3041 C.ar    1  UNL1        0.0299
      9 C         137.7150  143.7553  164.0011 C.ar    1  UNL1        0.0021
     10 C         138.6646  142.6207  163.7546 C.ar    1  UNL1        0.0008
     11 C         139.8169  142.7987  162.8110 C.ar    1  UNL1        0.0390
     12 H         142.6110  144.8941  159.8335 H       1  UNL1        0.2884
     13 H         141.3701  145.9523  160.3315 H       1  UNL1        0.2884
     14 N         143.8609  139.2678  162.8953 N.ar    1  UNL1       -0.2946
     15 C         142.9113  140.4024  163.1419 C.ar    1  UNL1        0.0786
     16 C         141.8582  140.7332  162.1262 C.ar    1  UNL1        0.0468
     17 C         141.7548  139.9295  160.8640 C.ar    1  UNL1        0.0023
     18 C         142.7045  138.7949  160.6174 C.ar    1  UNL1        0.0342
     19 C         142.6011  137.9911  159.3551 C.3     1  UNL1        0.0360
     20 C         143.7575  138.4641  161.6331 C.ar    1  UNL1        0.2568
     21 O         144.7072  137.3294  161.3865 O.2     1  UNL1       -0.2673
     22 C         144.5634  138.8961  165.3689 C.3     1  UNL1        0.0266
     23 C         144.9140  138.9370  163.9110 C.3     1  UNL1        0.1091
     24 C         140.2297  140.8933  163.2891 C.ar    1  UNL1        0.0297
     25 C         139.2028  139.9441  162.7465 C.ar    1  UNL1        0.0004
     26 C         138.5240  138.9696  163.6629 C.ar    1  UNL1       -0.0002
     27 C         138.8722  138.9443  165.1217 C.ar    1  UNL1        0.0001
     28 C         139.8991  139.8935  165.6642 C.ar    1  UNL1        0.0028
     29 C         140.5779  140.8680  164.7480 C.ar    1  UNL1        0.0005
     30 C         140.2473  139.8682  167.1230 C.ar    1  UNL1        0.0384
     31 C         141.6847  139.8343  167.5505 C.ar    1  UNL1        0.1022
     32 N         142.0331  139.8090  169.0093 N.ar    1  UNL1       -0.2224
     33 C         140.9439  139.8176  170.0406 C.ar    1  UNL1        0.1989
     34 N         139.5064  139.8516  169.6131 N.ar    1  UNL1       -0.2224
     35 C         139.1582  139.8769  168.1544 C.ar    1  UNL1        0.1022
@<TRIPOS>BOND
     1    22    23    1
     2    23    14    1
     3    14    15   ar
     4    15    16   ar
     5    16     1    1
     6     1    24    1
     7    24    25   ar
     8    25    26   ar
     9    26    27   ar
    10    27    28   ar
    11    28    30    1
    12    30    31   ar
    13    31    32   ar
    14    32    33   ar
    15    33    34   ar
    16    34    35   ar
    17    28    29   ar
    18     1     2    1
    19     2     3    2
    20     3     4    1
    21     3     5    1
    22     5     6   ar
    23     6     7    1
    24     6     8   ar
    25     8     9   ar
    26     9    10   ar
    27    10    11   ar
    28    16    17   ar
    29    17    18   ar
    30    18    19    1
    31    18    20   ar
    32    20    21    2
    33    20    14   ar
    34    11     1    1
    35    29    24   ar
    36    11     5   ar
    37    35    30   ar
    38     4    12    1
    39     4    13    1
