@<TRIPOS>MOLECULE
*****
 21 23 0 0 0
SMALL
GASTEIGER

@<TRIPOS>ATOM
      1 C         139.4538  139.1981  165.1874 C.3     1  UNL1        0.0475
      2 C         138.7323  140.2448  164.3912 C.2     1  UNL1        0.0019
      3 C         137.7883  139.9919  163.2532 C.2     1  UNL1        0.0945
      4 N         137.3008  141.3189  162.7519 N.2     1  UNL1       -0.2481
      5 C         137.9435  142.3919  163.5799 C.2     1  UNL1        0.0631
      6 C         137.8374  143.8877  163.5423 C.3     1  UNL1        0.0717
      7 C         138.6161  144.7195  164.5178 C.2     1  UNL1       -0.0198
      8 C         139.5009  144.0556  165.5309 C.2     1  UNL1       -0.0042
      9 C         139.6070  142.5599  165.5686 C.2     1  UNL1        0.0006
     10 C         138.8283  141.7280  164.5931 C.2     1  UNL1        0.0117
     11 C         140.0554  139.5486  166.5159 C.ar    1  UNL1       -0.0183
     12 C         139.1720  139.7321  167.7143 C.ar    1  UNL1       -0.0040
     13 C         139.7736  140.0826  169.0430 C.ar    1  UNL1       -0.0003
     14 C         141.2586  140.2496  169.1732 C.ar    1  UNL1       -0.0000
     15 C         142.1419  140.0660  167.9749 C.ar    1  UNL1       -0.0003
     16 C         141.5404  139.7155  166.6463 C.ar    1  UNL1       -0.0040
     17 C         139.5736  137.8008  164.6550 C.3     1  UNL1        0.0259
     18 C         140.9127  137.2699  164.2367 C.3     1  UNL1        0.0693
     19 C         140.7313  138.0066  161.7519 C.3     1  UNL1        0.0859
     20 N         141.2030  137.0269  162.7853 N.3     1  UNL1       -0.2963
     21 H         142.2171  136.9677  162.6937 H       1  UNL1        0.1233
@<TRIPOS>BOND
     1    19    20    1
     2    20    18    1
     3    18    17    1
     4    17     1    1
     5     1    11    1
     6    11    12   ar
     7    12    13   ar
     8    13    14   ar
     9    14    15   ar
    10    15    16   ar
    11     1     2    1
    12     2     3    2
    13     3     4    1
    14     4     5    2
    15     5     6    1
    16     6     7    1
    17     7     8    2
    18     8     9    1
    19     9    10    2
    20    16    11   ar
    21    10     2    1
    22    10     5    1
    23    20    21    1
@<TRIPOS>MOLECULE
*****
 21 23 0 0 0
SMALL
GASTEIGER

@<TRIPOS>ATOM
      1 C         140.4313  142.4824  166.1598 C.3     1  UNL1        0.0475
      2 C         140.4180  141.1571  165.4573 C.2     1  UNL1        0.0019
      3 C         141.2677  140.7735  164.2823 C.2     1  UNL1        0.0945
      4 N         140.9274  139.3621  163.9053 N.2     1  UNL1       -0.2481
      5 C         139.8673  138.8734  164.8473 C.2     1  UNL1        0.0631
      6 C         139.1480  137.5616  164.9556 C.3     1  UNL1        0.0717
      7 C         138.1139  137.3592  166.0231 C.2     1  UNL1       -0.0198
      8 C         137.7991  138.4686  166.9823 C.2     1  UNL1       -0.0042
      9 C         138.5183  139.7804  166.8740 C.2     1  UNL1        0.0006
     10 C         139.5524  139.9828  165.8065 C.2     1  UNL1        0.0117
     11 C         141.1314  142.6251  167.4786 C.ar    1  UNL1       -0.0183
     12 C         140.4110  143.2263  168.6490 C.ar    1  UNL1       -0.0040
     13 C         141.1110  143.3691  169.9679 C.ar    1  UNL1       -0.0003
     14 C         142.5315  142.9107  170.1165 C.ar    1  UNL1       -0.0000
     15 C         143.2519  142.3096  168.9462 C.ar    1  UNL1       -0.0003
     16 C         142.5519  142.1668  167.6273 C.ar    1  UNL1       -0.0040
     17 C         139.7446  143.6650  165.5434 C.3     1  UNL1        0.0259
     18 C         140.3674  144.3685  164.3741 C.3     1  UNL1        0.0693
     19 C         140.1494  145.9447  162.3204 C.3     1  UNL1        0.0859
     20 N         139.5330  145.2627  163.5057 N.3     1  UNL1       -0.2963
     21 H         138.7636  144.6946  163.1513 H       1  UNL1        0.1233
@<TRIPOS>BOND
     1    19    20    1
     2    20    18    1
     3    18    17    1
     4    17     1    1
     5     1    11    1
     6    11    12   ar
     7    12    13   ar
     8    13    14   ar
     9    14    15   ar
    10    15    16   ar
    11     1     2    1
    12     2     3    2
    13     3     4    1
    14     4     5    2
    15     5     6    1
    16     6     7    1
    17     7     8    2
    18     8     9    1
    19     9    10    2
    20    16    11   ar
    21    10     2    1
    22    10     5    1
    23    20    21    1
@<TRIPOS>MOLECULE
*****
 21 23 0 0 0
SMALL
GASTEIGER

@<TRIPOS>ATOM
      1 C         143.1024  141.8160  165.1378 C.3     1  UNL1        0.0475
      2 C         142.3532  143.0265  164.6653 C.2     1  UNL1        0.0019
      3 C         142.9641  144.3034  164.1690 C.2     1  UNL1        0.0945
      4 N         141.8500  145.2388  163.8031 N.2     1  UNL1       -0.2481
      5 C         140.5505  144.5399  164.0732 C.2     1  UNL1        0.0631
      6 C         139.1242  144.9719  163.9028 C.3     1  UNL1        0.0717
      7 C         138.0089  144.0367  164.2653 C.2     1  UNL1       -0.0198
      8 C         138.3199  142.6694  164.7981 C.2     1  UNL1       -0.0042
      9 C         139.7462  142.2374  164.9685 C.2     1  UNL1        0.0006
     10 C         140.8615  143.1727  164.6061 C.2     1  UNL1        0.0117
     11 C         143.0005  141.3827  166.5701 C.ar    1  UNL1       -0.0183
     12 C         143.2161  142.3776  167.6719 C.ar    1  UNL1       -0.0040
     13 C         143.1143  141.9443  169.1043 C.ar    1  UNL1       -0.0003
     14 C         142.7969  140.5160  169.4350 C.ar    1  UNL1       -0.0000
     15 C         142.5813  139.5212  168.3334 C.ar    1  UNL1       -0.0003
     16 C         142.6831  139.9544  166.9009 C.ar    1  UNL1       -0.0040
     17 C         143.9535  141.0387  164.1778 C.3     1  UNL1        0.0259
     18 C         145.3988  141.3971  163.9970 C.3     1  UNL1        0.0693
     19 C         144.8880  142.2698  161.6038 C.3     1  UNL1        0.0859
     20 N         145.8750  141.9554  162.6887 N.3     1  UNL1       -0.2963
     21 H         146.3663  142.8238  162.9005 H       1  UNL1        0.1233
@<TRIPOS>BOND
     1    19    20    1
     2    20    18    1
     3    18    17    1
     4    17     1    1
     5     1    11    1
     6    11    12   ar
     7    12    13   ar
     8    13    14   ar
     9    14    15   ar
    10    15    16   ar
    11     1     2    1
    12     2     3    2
    13     3     4    1
    14     4     5    2
    15     5     6    1
    16     6     7    1
    17     7     8    2
    18     8     9    1
    19     9    10    2
    20    16    11   ar
    21    10     2    1
    22    10     5    1
    23    20    21    1
@<TRIPOS>MOLECULE
*****
 21 23 0 0 0
SMALL
GASTEIGER

@<TRIPOS>ATOM
      1 C         140.6085  141.3124  166.5843 C.3     1  UNL1        0.0475
      2 C         141.6745  140.5145  165.8936 C.2     1  UNL1        0.0019
      3 C         141.6630  139.0305  165.6754 C.2     1  UNL1        0.0945
      4 N         142.9205  138.6594  164.9468 N.2     1  UNL1       -0.2481
      5 C         143.7093  139.9140  164.7147 C.2     1  UNL1        0.0631
      6 C         145.0292  140.1605  164.0461 C.3     1  UNL1        0.0717
      7 C         145.5790  141.5536  163.9627 C.2     1  UNL1       -0.0198
      8 C         144.8089  142.7001  164.5478 C.2     1  UNL1       -0.0042
      9 C         143.4890  142.4536  165.2164 C.2     1  UNL1        0.0006
     10 C         142.9392  141.0605  165.2998 C.2     1  UNL1        0.0117
     11 C         139.7027  142.2028  165.7865 C.ar    1  UNL1       -0.0183
     12 C         138.6240  141.6042  164.9331 C.ar    1  UNL1       -0.0040
     13 C         137.7180  142.4946  164.1353 C.ar    1  UNL1       -0.0003
     14 C         137.8908  143.9836  164.1908 C.ar    1  UNL1       -0.0000
     15 C         138.9695  144.5821  165.0441 C.ar    1  UNL1       -0.0003
     16 C         139.8754  143.6918  165.8420 C.ar    1  UNL1       -0.0040
     17 C         140.4484  141.2199  168.0729 C.3     1  UNL1        0.0259
     18 C         139.5956  140.1399  168.6698 C.3     1  UNL1        0.0693
     19 C         140.6731  140.5691  170.9946 C.3     1  UNL1        0.0859
     20 N         139.6710  139.8513  170.1398 N.3     1  UNL1       -0.2963
     21 H         138.7508  140.0582  170.5281 H       1  UNL1        0.1233
@<TRIPOS>BOND
     1    19    20    1
     2    20    18    1
     3    18    17    1
     4    17     1    1
     5     1    11    1
     6    11    12   ar
     7    12    13   ar
     8    13    14   ar
     9    14    15   ar
    10    15    16   ar
    11     1     2    1
    12     2     3    2
    13     3     4    1
    14     4     5    2
    15     5     6    1
    16     6     7    1
    17     7     8    2
    18     8     9    1
    19     9    10    2
    20    16    11   ar
    21    10     2    1
    22    10     5    1
    23    20    21    1
@<TRIPOS>MOLECULE
*****
 21 23 0 0 0
SMALL
GASTEIGER

@<TRIPOS>ATOM
      1 C         140.0306  141.5772  166.4248 C.3     1  UNL1        0.0475
      2 C         140.1859  142.7948  165.5626 C.2     1  UNL1        0.0019
      3 C         139.0752  143.6764  165.0737 C.2     1  UNL1        0.0945
      4 N         139.6822  144.7710  164.2469 N.2     1  UNL1       -0.2481
      5 C         141.1679  144.5659  164.2249 C.2     1  UNL1        0.0631
      6 C         142.2775  145.3334  163.5695 C.3     1  UNL1        0.0717
      7 C         143.6984  144.8796  163.7273 C.2     1  UNL1       -0.0198
      8 C         144.0098  143.6582  164.5404 C.2     1  UNL1       -0.0042
      9 C         142.9002  142.8907  165.1959 C.2     1  UNL1        0.0006
     10 C         141.4793  143.3445  165.0381 C.2     1  UNL1        0.0117
     11 C         140.2026  141.6837  167.9111 C.ar    1  UNL1       -0.0183
     12 C         140.4866  143.0157  168.5397 C.ar    1  UNL1       -0.0040
     13 C         140.6586  143.1222  170.0260 C.ar    1  UNL1       -0.0003
     14 C         140.5466  141.8967  170.8837 C.ar    1  UNL1       -0.0000
     15 C         140.2627  140.5647  170.2551 C.ar    1  UNL1       -0.0003
     16 C         140.0906  140.4582  168.7688 C.ar    1  UNL1       -0.0040
     17 C         139.7032  140.2530  165.8007 C.3     1  UNL1        0.0259
     18 C         138.2778  139.9001  165.4946 C.3     1  UNL1        0.0693
     19 C         138.2386  140.5777  162.9869 C.3     1  UNL1        0.0859
     20 N         137.5788  140.5428  164.3335 N.3     1  UNL1       -0.2963
     21 H         136.6928  140.0516  164.2147 H       1  UNL1        0.1233
@<TRIPOS>BOND
     1    19    20    1
     2    20    18    1
     3    18    17    1
     4    17     1    1
     5     1    11    1
     6    11    12   ar
     7    12    13   ar
     8    13    14   ar
     9    14    15   ar
    10    15    16   ar
    11     1     2    1
    12     2     3    2
    13     3     4    1
    14     4     5    2
    15     5     6    1
    16     6     7    1
    17     7     8    2
    18     8     9    1
    19     9    10    2
    20    16    11   ar
    21    10     2    1
    22    10     5    1
    23    20    21    1
@<TRIPOS>MOLECULE
*****
 21 23 0 0 0
SMALL
GASTEIGER

@<TRIPOS>ATOM
      1 C         139.4354  142.7275  165.0731 C.3     1  UNL1        0.0475
      2 C         139.5001  141.6026  166.0632 C.2     1  UNL1        0.0019
      3 C         139.0681  140.1871  165.8188 C.2     1  UNL1        0.0945
      4 N         139.3092  139.4053  167.0761 N.2     1  UNL1       -0.2481
      5 C         139.8902  140.3377  168.0975 C.2     1  UNL1        0.0631
      6 C         140.3270  140.1255  169.5166 C.3     1  UNL1        0.0717
      7 C         140.8819  141.2714  170.3098 C.2     1  UNL1       -0.0198
      8 C         140.9999  142.6294  169.6838 C.2     1  UNL1       -0.0042
      9 C         140.5630  142.8415  168.2646 C.2     1  UNL1        0.0006
     10 C         140.0082  141.6957  167.4714 C.2     1  UNL1        0.0117
     11 C         140.6964  143.4022  164.6209 C.ar    1  UNL1       -0.0183
     12 C         140.6427  144.7897  164.0533 C.ar    1  UNL1       -0.0040
     13 C         141.9037  145.4644  163.6011 C.ar    1  UNL1       -0.0003
     14 C         143.2185  144.7516  163.7164 C.ar    1  UNL1       -0.0000
     15 C         143.2722  143.3642  164.2840 C.ar    1  UNL1       -0.0003
     16 C         142.0112  142.6895  164.7362 C.ar    1  UNL1       -0.0040
     17 C         138.1095  143.1779  164.5351 C.3     1  UNL1        0.0259
     18 C         137.6487  142.7089  163.1869 C.3     1  UNL1        0.0693
     19 C         137.6680  140.2309  162.4067 C.3     1  UNL1        0.0859
     20 N         136.9573  141.3849  163.0494 N.3     1  UNL1       -0.2963
     21 H         136.7027  141.0865  163.9910 H       1  UNL1        0.1233
@<TRIPOS>BOND
     1    19    20    1
     2    20    18    1
     3    18    17    1
     4    17     1    1
     5     1    11    1
     6    11    12   ar
     7    12    13   ar
     8    13    14   ar
     9    14    15   ar
    10    15    16   ar
    11     1     2    1
    12     2     3    2
    13     3     4    1
    14     4     5    2
    15     5     6    1
    16     6     7    1
    17     7     8    2
    18     8     9    1
    19     9    10    2
    20    16    11   ar
    21    10     2    1
    22    10     5    1
    23    20    21    1
@<TRIPOS>MOLECULE
*****
 21 23 0 0 0
SMALL
GASTEIGER

@<TRIPOS>ATOM
      1 C         139.3874  140.0445  166.0837 C.3     1  UNL1        0.0475
      2 C         140.6470  139.8581  166.8765 C.2     1  UNL1        0.0019
      3 C         141.9238  139.2524  166.3736 C.2     1  UNL1        0.0945
      4 N         142.9169  139.2647  167.4977 N.2     1  UNL1       -0.2481
      5 C         142.2539  139.8780  168.6953 C.2     1  UNL1        0.0631
      6 C         142.7463  140.1498  170.0859 C.3     1  UNL1        0.0717
      7 C         141.8358  140.7884  171.0924 C.2     1  UNL1       -0.0198
      8 C         140.4330  141.1552  170.7085 C.2     1  UNL1       -0.0042
      9 C         139.9405  140.8834  169.3180 C.2     1  UNL1        0.0006
     10 C         140.8510  140.2447  168.3114 C.2     1  UNL1        0.0117
     11 C         139.0763  141.3785  165.4725 C.ar    1  UNL1       -0.0183
     12 C         139.8570  142.5919  165.8827 C.ar    1  UNL1       -0.0040
     13 C         139.5459  143.9259  165.2716 C.ar    1  UNL1       -0.0003
     14 C         138.4541  144.0466  164.2501 C.ar    1  UNL1       -0.0000
     15 C         137.6734  142.8333  163.8399 C.ar    1  UNL1       -0.0003
     16 C         137.9844  141.4993  164.4511 C.ar    1  UNL1       -0.0040
     17 C         138.4387  138.8968  165.9020 C.3     1  UNL1        0.0259
     18 C         138.8431  137.7134  165.0737 C.3     1  UNL1        0.0693
     19 C         140.7658  137.2991  163.3762 C.3     1  UNL1        0.0859
     20 N         139.4424  137.9193  163.7142 N.3     1  UNL1       -0.2963
     21 H         138.7681  137.5613  163.0378 H       1  UNL1        0.1233
@<TRIPOS>BOND
     1    19    20    1
     2    20    18    1
     3    18    17    1
     4    17     1    1
     5     1    11    1
     6    11    12   ar
     7    12    13   ar
     8    13    14   ar
     9    14    15   ar
    10    15    16   ar
    11     1     2    1
    12     2     3    2
    13     3     4    1
    14     4     5    2
    15     5     6    1
    16     6     7    1
    17     7     8    2
    18     8     9    1
    19     9    10    2
    20    16    11   ar
    21    10     2    1
    22    10     5    1
    23    20    21    1
@<TRIPOS>MOLECULE
*****
 21 23 0 0 0
SMALL
GASTEIGER

@<TRIPOS>ATOM
      1 C         140.1336  141.5423  166.6348 C.3     1  UNL1        0.0475
      2 C         140.2692  142.7177  165.7128 C.2     1  UNL1        0.0019
      3 C         139.1457  143.5644  165.1925 C.2     1  UNL1        0.0945
      4 N         139.7344  144.6227  164.3074 N.2     1  UNL1       -0.2481
      5 C         141.2217  144.4301  164.2807 C.2     1  UNL1        0.0631
      6 C         142.3178  145.1746  163.5777 C.3     1  UNL1        0.0717
      7 C         143.7443  144.7418  163.7432 C.2     1  UNL1       -0.0198
      8 C         144.0749  143.5644  164.6118 C.2     1  UNL1       -0.0042
      9 C         142.9789  142.8198  165.3148 C.2     1  UNL1        0.0006
     10 C         141.5523  143.2527  165.1493 C.2     1  UNL1        0.0117
     11 C         139.7461  140.2006  166.0875 C.ar    1  UNL1       -0.0183
     12 C         140.4995  139.6170  164.9291 C.ar    1  UNL1       -0.0040
     13 C         140.1121  138.2753  164.3817 C.ar    1  UNL1       -0.0003
     14 C         138.9712  137.5170  164.9929 C.ar    1  UNL1       -0.0000
     15 C         138.2179  138.1005  166.1513 C.ar    1  UNL1       -0.0003
     16 C         138.6053  139.4422  166.6986 C.ar    1  UNL1       -0.0040
     17 C         140.3854  141.7086  168.1042 C.3     1  UNL1        0.0259
     18 C         140.9061  143.0122  168.6330 C.3     1  UNL1        0.0693
     19 C         139.6061  142.9969  170.8823 C.3     1  UNL1        0.0859
     20 N         140.1485  143.7446  169.7005 N.3     1  UNL1       -0.2963
     21 H         140.7751  144.4609  170.0675 H       1  UNL1        0.1233
@<TRIPOS>BOND
     1    19    20    1
     2    20    18    1
     3    18    17    1
     4    17     1    1
     5     1    11    1
     6    11    12   ar
     7    12    13   ar
     8    13    14   ar
     9    14    15   ar
    10    15    16   ar
    11     1     2    1
    12     2     3    2
    13     3     4    1
    14     4     5    2
    15     5     6    1
    16     6     7    1
    17     7     8    2
    18     8     9    1
    19     9    10    2
    20    16    11   ar
    21    10     2    1
    22    10     5    1
    23    20    21    1
@<TRIPOS>MOLECULE
*****
 21 23 0 0 0
SMALL
GASTEIGER

@<TRIPOS>ATOM
      1 C         142.0011  140.6109  166.4251 C.3     1  UNL1        0.0475
      2 C         140.6248  140.6814  165.8328 C.2     1  UNL1        0.0019
      3 C         139.7418  139.5118  165.5126 C.2     1  UNL1        0.0945
      4 N         138.4612  140.0414  164.9386 N.2     1  UNL1       -0.2481
      5 C         138.5526  141.5383  164.9041 C.2     1  UNL1        0.0631
      6 C         137.5911  142.5922  164.4409 C.3     1  UNL1        0.0717
      7 C         137.9667  144.0416  164.5303 C.2     1  UNL1       -0.0198
      8 C         139.3039  144.4371  165.0830 C.2     1  UNL1       -0.0042
      9 C         140.2655  143.3832  165.5462 C.2     1  UNL1        0.0006
     10 C         139.8898  141.9338  165.4568 C.2     1  UNL1        0.0117
     11 C         143.1940  140.9867  165.5973 C.ar    1  UNL1       -0.0183
     12 C         143.9322  139.9341  164.8243 C.ar    1  UNL1       -0.0040
     13 C         145.1252  140.3098  163.9963 C.ar    1  UNL1       -0.0003
     14 C         145.5802  141.7382  163.9414 C.ar    1  UNL1       -0.0000
     15 C         144.8421  142.7906  164.7143 C.ar    1  UNL1       -0.0003
     16 C         143.6490  142.4149  165.5422 C.ar    1  UNL1       -0.0040
     17 C         142.1844  140.1646  167.8455 C.3     1  UNL1        0.0259
     18 C         141.8271  141.0867  168.9734 C.3     1  UNL1        0.0693
     19 C         140.5098  143.3035  169.2898 C.3     1  UNL1        0.0859
     20 N         141.6809  142.5581  168.7215 N.3     1  UNL1       -0.2963
     21 H         142.5209  143.0048  169.0894 H       1  UNL1        0.1233
@<TRIPOS>BOND
     1    19    20    1
     2    20    18    1
     3    18    17    1
     4    17     1    1
     5     1    11    1
     6    11    12   ar
     7    12    13   ar
     8    13    14   ar
     9    14    15   ar
    10    15    16   ar
    11     1     2    1
    12     2     3    2
    13     3     4    1
    14     4     5    2
    15     5     6    1
    16     6     7    1
    17     7     8    2
    18     8     9    1
    19     9    10    2
    20    16    11   ar
    21    10     2    1
    22    10     5    1
    23    20    21    1
