@<TRIPOS>MOLECULE
*****
 44 47 0 0 0
SMALL
GASTEIGER

@<TRIPOS>ATOM
      1 N         142.4071  139.6631  158.3990 N.3     1  UNL1       -0.2738
      2 C         143.2109  138.5733  159.0440 C.3     1  UNL1        0.0738
      3 C         143.7280  138.7492  160.4410 C.3     1  UNL1        0.0372
      4 C         143.4414  140.0150  161.1930 C.3     1  UNL1        0.0799
      5 C         142.6376  141.1049  160.5480 C.3     1  UNL1        0.0372
      6 C         142.1204  140.9290  159.1510 C.3     1  UNL1        0.0738
      7 N         143.9585  140.1909  162.5900 N.am    1  UNL1       -0.2616
      8 C         143.4406  139.3206  163.6966 C.2     1  UNL1        0.3044
      9 O         142.4057  138.2744  163.4061 O.2     1  UNL1       -0.2526
     10 N         143.9577  139.4965  165.0936 N.am    1  UNL1       -0.2847
     11 H         144.6370  140.1831  165.2842 H       1  UNL1        0.1513
     12 C         144.9934  141.2370  162.8805 C.3     1  UNL1        0.1221
     13 C         144.5707  142.6266  163.2553 C.ar    1  UNL1        0.0047
     14 C         144.3226  143.7595  162.3041 C.ar    1  UNL1        0.0049
     15 C         143.9204  144.9603  163.1081 C.ar    1  UNL1        0.0352
     16 S         143.9199  144.5694  164.5563 S.2     1  UNL1       -0.0862
     17 C         144.3218  143.1271  164.6472 C.ar    1  UNL1        0.0328
     18 C         143.4399  138.6263  166.2002 C.3     1  UNL1        0.1177
     19 C         142.3886  139.1474  167.1346 C.ar    1  UNL1       -0.0025
     20 C         142.6469  139.1782  168.6119 C.ar    1  UNL1       -0.0026
     21 C         141.5956  139.6992  169.5464 C.ar    1  UNL1        0.0009
     22 C         140.2860  140.1895  169.0036 C.ar    1  UNL1        0.0140
     23 C         140.0277  140.1587  167.5264 C.ar    1  UNL1        0.0009
     24 C         141.0790  139.6376  166.5919 C.ar    1  UNL1       -0.0026
     25 C         139.2347  140.7106  169.9381 C.2     1  UNL1        0.0729
     26 O         138.0815  139.8361  170.3323 O.co2   1  UNL1       -0.5446
     27 O         139.3365  142.1061  170.4784 O.co2   1  UNL1       -0.5446
     28 C         141.8900  139.4872  157.0020 C.3     1  UNL1        0.0592
     29 C         142.7012  139.9690  155.8358 C.3     1  UNL1        0.0174
     30 C         140.5618  138.8295  156.7711 C.3     1  UNL1        0.0372
     31 C         139.8466  138.1641  157.9093 C.3     1  UNL1        0.0911
     32 C         138.4806  139.8550  159.3324 C.2     1  UNL1        0.2467
     33 O         137.5419  140.0653  158.1815 O.2     1  UNL1       -0.2701
     34 N         139.6329  138.9044  159.1964 N.am    1  UNL1       -0.3008
     35 H         140.2490  138.7664  159.9518 H       1  UNL1        0.1497
     36 C         138.8821  142.8261  159.4383 C.3     1  UNL1        0.0313
     37 C         138.4677  142.0808  160.6724 C.ar    1  UNL1       -0.0140
     38 C         138.2540  142.8211  161.9593 C.ar    1  UNL1        0.0267
     39 C         137.8396  142.0758  163.1933 C.ar    1  UNL1        0.1376
     40 CL        137.6259  142.8161  164.4804 Cl      1  UNL1       -0.0614
     41 N         137.6389  140.5902  163.1404 N.ar    1  UNL1       -0.2381
     42 C         137.8525  139.8500  161.8534 C.ar    1  UNL1        0.0643
     43 C         137.6518  138.3644  161.8004 C.3     1  UNL1        0.0523
     44 C         138.2669  140.5953  160.6194 C.ar    1  UNL1        0.0630
@<TRIPOS>UNITY_ATOM_ATTR
26 1
charge -1
@<TRIPOS>BOND
     1    36    37    1
     2    37    38   ar
     3    38    39   ar
     4    39    40    1
     5    39    41   ar
     6    41    42   ar
     7    42    43    1
     8    42    44   ar
     9    44    32    1
    10    32    33    2
    11    32    34   am
    12    34    31    1
    13    31    30    1
    14    30    28    1
    15    28    29    1
    16    28     1    1
    17     1     2    1
    18     2     3    1
    19     3     4    1
    20     4     7    1
    21     7    12    1
    22    12    13    1
    23    13    14   ar
    24    14    15   ar
    25    15    16   ar
    26    16    17   ar
    27     7     8   am
    28     8     9    2
    29     8    10   am
    30    10    18    1
    31    18    19    1
    32    19    20   ar
    33    20    21   ar
    34    21    22   ar
    35    22    25    1
    36    25    26   ar
    37    25    27   ar
    38    22    23   ar
    39    23    24   ar
    40     4     5    1
    41     5     6    1
    42    44    37   ar
    43     6     1    1
    44    17    13   ar
    45    24    19   ar
    46    34    35    1
    47    10    11    1
@<TRIPOS>MOLECULE
*****
 44 47 0 0 0
SMALL
GASTEIGER

@<TRIPOS>ATOM
      1 N         142.8182  138.5175  158.7710 N.3     1  UNL1       -0.2738
      2 C         142.9240  137.5298  159.8949 C.3     1  UNL1        0.0738
      3 C         143.3321  137.9909  161.2627 C.3     1  UNL1        0.0372
      4 C         143.6345  139.4397  161.5065 C.3     1  UNL1        0.0799
      5 C         143.5287  140.4275  160.3825 C.3     1  UNL1        0.0372
      6 C         143.1206  139.9664  159.0148 C.3     1  UNL1        0.0738
      7 N         144.0427  139.9009  162.8743 N.am    1  UNL1       -0.2616
      8 C         143.4222  139.2806  164.0910 C.2     1  UNL1        0.3044
      9 O         142.3937  138.1993  163.9400 O.2     1  UNL1       -0.2526
     10 N         143.8304  139.7418  165.4588 N.am    1  UNL1       -0.2847
     11 H         144.5055  140.4515  165.5579 H       1  UNL1        0.1513
     12 C         145.0712  140.9822  163.0253 C.3     1  UNL1        0.1221
     13 C         144.6423  142.3904  163.3133 C.ar    1  UNL1        0.0047
     14 C         144.5520  143.0246  164.6696 C.ar    1  UNL1        0.0049
     15 C         144.0823  144.4378  164.4902 C.ar    1  UNL1        0.0352
     16 S         143.8822  144.6770  163.0230 S.2     1  UNL1       -0.0862
     17 C         144.2283  143.4116  162.2956 C.ar    1  UNL1        0.0328
     18 C         143.2100  139.1216  166.6755 C.3     1  UNL1        0.1177
     19 C         142.5402  139.9882  167.7003 C.ar    1  UNL1       -0.0025
     20 C         141.9867  139.3770  168.9533 C.ar    1  UNL1       -0.0026
     21 C         141.3170  140.2436  169.9781 C.ar    1  UNL1        0.0009
     22 C         141.2007  141.7216  169.7500 C.ar    1  UNL1        0.0140
     23 C         141.7542  142.3329  168.4971 C.ar    1  UNL1        0.0009
     24 C         142.4240  141.4662  167.4722 C.ar    1  UNL1       -0.0026
     25 C         140.5309  142.5882  170.7748 C.2     1  UNL1        0.0729
     26 O         140.4415  142.1312  172.2007 O.co2   1  UNL1       -0.5446
     27 O         139.9504  143.9119  170.3738 O.co2   1  UNL1       -0.5446
     28 C         142.4100  138.0564  157.4032 C.3     1  UNL1        0.0592
     29 C         143.3941  138.1009  156.2720 C.3     1  UNL1        0.0174
     30 C         141.0178  137.5507  157.1666 C.3     1  UNL1        0.0372
     31 C         139.8510  138.4868  157.2775 C.3     1  UNL1        0.0911
     32 C         138.4457  140.1655  158.6765 C.2     1  UNL1        0.2467
     33 O         137.3846  140.1607  157.6163 O.2     1  UNL1       -0.2701
     34 N         139.6789  139.3286  158.5071 N.am    1  UNL1       -0.3008
     35 H         140.3753  139.3317  159.2029 H       1  UNL1        0.1497
     36 C         137.4898  138.9135  161.2297 C.3     1  UNL1        0.0313
     37 C         137.7956  140.3813  161.1827 C.ar    1  UNL1       -0.0140
     38 C         137.6235  141.2230  162.4122 C.ar    1  UNL1        0.0267
     39 C         137.9294  142.6908  162.3652 C.ar    1  UNL1        0.1376
     40 CL        137.7573  143.5325  163.5948 Cl      1  UNL1       -0.0614
     41 N         138.4073  143.3168  161.0886 N.ar    1  UNL1       -0.2381
     42 C         138.5794  142.4750  159.8591 C.ar    1  UNL1        0.0643
     43 C         139.0573  143.1010  158.5824 C.3     1  UNL1        0.0523
     44 C         138.2736  141.0073  159.9061 C.ar    1  UNL1        0.0630
@<TRIPOS>UNITY_ATOM_ATTR
26 1
charge -1
@<TRIPOS>BOND
     1    36    37    1
     2    37    38   ar
     3    38    39   ar
     4    39    40    1
     5    39    41   ar
     6    41    42   ar
     7    42    43    1
     8    42    44   ar
     9    44    32    1
    10    32    33    2
    11    32    34   am
    12    34    31    1
    13    31    30    1
    14    30    28    1
    15    28    29    1
    16    28     1    1
    17     1     2    1
    18     2     3    1
    19     3     4    1
    20     4     7    1
    21     7    12    1
    22    12    13    1
    23    13    14   ar
    24    14    15   ar
    25    15    16   ar
    26    16    17   ar
    27     7     8   am
    28     8     9    2
    29     8    10   am
    30    10    18    1
    31    18    19    1
    32    19    20   ar
    33    20    21   ar
    34    21    22   ar
    35    22    25    1
    36    25    26   ar
    37    25    27   ar
    38    22    23   ar
    39    23    24   ar
    40     4     5    1
    41     5     6    1
    42    44    37   ar
    43     6     1    1
    44    17    13   ar
    45    24    19   ar
    46    34    35    1
    47    10    11    1
@<TRIPOS>MOLECULE
*****
 44 47 0 0 0
SMALL
GASTEIGER

@<TRIPOS>ATOM
      1 N         141.5101  143.2927  161.1001 N.3     1  UNL1       -0.2738
      2 C         142.9550  142.9651  160.8659 C.3     1  UNL1        0.0738
      3 C         143.3600  141.5620  160.5236 C.3     1  UNL1        0.0372
      4 C         142.3201  140.4864  160.4156 C.3     1  UNL1        0.0799
      5 C         140.8751  140.8139  160.6498 C.3     1  UNL1        0.0372
      6 C         140.4701  142.2171  160.9920 C.3     1  UNL1        0.0738
      7 N         142.7251  139.0833  160.0733 N.am    1  UNL1       -0.2616
      8 C         142.6000  138.5895  158.6623 C.2     1  UNL1        0.3044
      9 O         142.0699  139.4990  157.5938 O.2     1  UNL1       -0.2526
     10 N         143.0050  137.1864  158.3201 N.am    1  UNL1       -0.2847
     11 H         143.3529  136.5895  159.0214 H       1  UNL1        0.1513
     12 C         143.2552  138.1738  161.1419 C.3     1  UNL1        0.1221
     13 C         142.5873  138.1245  162.4841 C.ar    1  UNL1        0.0047
     14 C         143.0879  138.7698  163.7422 C.ar    1  UNL1        0.0049
     15 C         142.1115  138.4654  164.8395 C.ar    1  UNL1        0.0352
     16 S         141.0075  137.6320  164.2595 S.2     1  UNL1       -0.0862
     17 C         141.3015  137.4213  162.8038 C.ar    1  UNL1        0.0328
     18 C         142.8799  136.6927  156.9092 C.3     1  UNL1        0.1177
     19 C         142.7158  135.2263  156.6395 C.ar    1  UNL1       -0.0025
     20 C         143.5536  134.2286  157.3829 C.ar    1  UNL1       -0.0026
     21 C         143.3895  132.7622  157.1133 C.ar    1  UNL1        0.0009
     22 C         142.3876  132.2935  156.1002 C.ar    1  UNL1        0.0140
     23 C         141.5498  133.2911  155.3568 C.ar    1  UNL1        0.0009
     24 C         141.7139  134.7575  155.6265 C.ar    1  UNL1       -0.0026
     25 C         142.2235  130.8271  155.8305 C.2     1  UNL1        0.0729
     26 O         141.2934  130.3628  154.7491 O.co2   1  UNL1       -0.5446
     27 O         142.9895  129.8249  156.6422 O.co2   1  UNL1       -0.5446
     28 C         141.1051  144.6958  161.4424 C.3     1  UNL1        0.0592
     29 C         140.5063  145.5815  160.3901 C.3     1  UNL1        0.0174
     30 C         141.2988  145.2134  162.8369 C.3     1  UNL1        0.0372
     31 C         141.9744  144.3578  163.8672 C.3     1  UNL1        0.0911
     32 C         140.1374  143.0475  165.1551 C.2     1  UNL1        0.2467
     33 O         139.5348  144.3426  165.6132 O.2     1  UNL1       -0.2701
     34 N         141.3571  143.0552  164.2821 N.am    1  UNL1       -0.3008
     35 H         141.7526  142.2052  163.9815 H       1  UNL1        0.1497
     36 C         141.1102  141.6451  167.6223 C.3     1  UNL1        0.0313
     37 C         140.0065  141.0437  166.8036 C.ar    1  UNL1       -0.0140
     38 C         139.3893  139.7411  167.2185 C.ar    1  UNL1        0.0267
     39 C         138.2856  139.1396  166.3998 C.ar    1  UNL1        0.1376
     40 CL        137.6684  137.8369  166.8147 Cl      1  UNL1       -0.0614
     41 N         137.7992  139.8408  165.1662 N.ar    1  UNL1       -0.2381
     42 C         138.4165  141.1434  164.7513 C.ar    1  UNL1        0.0643
     43 C         137.9301  141.8447  163.5177 C.3     1  UNL1        0.0523
     44 C         139.5201  141.7448  165.5700 C.ar    1  UNL1        0.0630
@<TRIPOS>UNITY_ATOM_ATTR
26 1
charge -1
@<TRIPOS>BOND
     1    36    37    1
     2    37    38   ar
     3    38    39   ar
     4    39    40    1
     5    39    41   ar
     6    41    42   ar
     7    42    43    1
     8    42    44   ar
     9    44    32    1
    10    32    33    2
    11    32    34   am
    12    34    31    1
    13    31    30    1
    14    30    28    1
    15    28    29    1
    16    28     1    1
    17     1     2    1
    18     2     3    1
    19     3     4    1
    20     4     7    1
    21     7    12    1
    22    12    13    1
    23    13    14   ar
    24    14    15   ar
    25    15    16   ar
    26    16    17   ar
    27     7     8   am
    28     8     9    2
    29     8    10   am
    30    10    18    1
    31    18    19    1
    32    19    20   ar
    33    20    21   ar
    34    21    22   ar
    35    22    25    1
    36    25    26   ar
    37    25    27   ar
    38    22    23   ar
    39    23    24   ar
    40     4     5    1
    41     5     6    1
    42    44    37   ar
    43     6     1    1
    44    17    13   ar
    45    24    19   ar
    46    34    35    1
    47    10    11    1
@<TRIPOS>MOLECULE
*****
 44 47 0 0 0
SMALL
GASTEIGER

@<TRIPOS>ATOM
      1 N         139.6991  140.8104  167.3375 N.3     1  UNL1       -0.2738
      2 C         138.8266  139.8160  166.6305 C.3     1  UNL1        0.0738
      3 C         138.3916  140.0708  165.2178 C.3     1  UNL1        0.0372
      4 C         138.8291  141.3200  164.5120 C.3     1  UNL1        0.0799
      5 C         139.7017  142.3144  165.2190 C.3     1  UNL1        0.0372
      6 C         140.1367  142.0596  166.6318 C.3     1  UNL1        0.0738
      7 N         138.3941  141.5748  163.0993 N.am    1  UNL1       -0.2616
      8 C         138.5022  140.4858  162.0733 C.2     1  UNL1        0.3044
      9 O         139.0452  139.1422  162.4601 O.2     1  UNL1       -0.2526
     10 N         138.0672  140.7406  160.6606 N.am    1  UNL1       -0.2847
     11 H         137.7107  141.6225  160.4067 H       1  UNL1        0.1513
     12 C         137.8510  142.9184  162.7125 C.3     1  UNL1        0.1221
     13 C         138.7728  143.9748  162.1794 C.ar    1  UNL1        0.0047
     14 C         139.6552  143.8480  160.9730 C.ar    1  UNL1        0.0049
     15 C         140.4019  145.1383  160.8070 C.ar    1  UNL1        0.0352
     16 S         139.9810  146.0627  161.9108 S.2     1  UNL1       -0.0862
     17 C         138.9742  145.3436  162.7590 C.ar    1  UNL1        0.0328
     18 C         138.1752  139.6518  159.6346 C.3     1  UNL1        0.1177
     19 C         139.3594  139.6024  158.7152 C.ar    1  UNL1       -0.0025
     20 C         140.1456  140.8492  158.4372 C.ar    1  UNL1       -0.0026
     21 C         141.3297  140.7999  157.5178 C.ar    1  UNL1        0.0009
     22 C         141.7277  139.5037  156.8763 C.ar    1  UNL1        0.0140
     23 C         140.9415  138.2569  157.1543 C.ar    1  UNL1        0.0009
     24 C         139.7573  138.3063  158.0737 C.ar    1  UNL1       -0.0026
     25 C         142.9119  139.4543  155.9569 C.2     1  UNL1        0.0729
     26 O         142.8283  140.0718  154.5925 O.co2   1  UNL1       -0.5446
     27 O         144.1796  138.7875  156.4019 O.co2   1  UNL1       -0.5446
     28 C         140.1342  140.5556  168.7503 C.3     1  UNL1        0.0592
     29 C         139.1085  140.3777  169.8303 C.3     1  UNL1        0.0174
     30 C         141.5947  140.4787  169.0830 C.3     1  UNL1        0.0372
     31 C         142.4981  139.5810  168.2906 C.3     1  UNL1        0.0911
     32 C         143.3045  138.6543  166.0013 C.2     1  UNL1        0.2467
     33 O         144.2602  137.7394  166.7082 O.2     1  UNL1       -0.2701
     34 N         142.4235  139.5750  166.7924 N.am    1  UNL1       -0.3008
     35 H         141.7963  140.1754  166.3284 H       1  UNL1        0.1497
     36 C         141.1509  137.0941  164.6128 C.3     1  UNL1        0.0313
     37 C         142.1531  137.8682  163.8089 C.ar    1  UNL1       -0.0140
     38 C         142.0785  137.8623  162.3108 C.ar    1  UNL1        0.0267
     39 C         143.0808  138.6364  161.5069 C.ar    1  UNL1        0.1376
     40 CL        143.0061  138.6305  160.0087 Cl      1  UNL1       -0.0614
     41 N         144.1576  139.4165  162.2011 N.ar    1  UNL1       -0.2381
     42 C         144.2321  139.4224  163.6992 C.ar    1  UNL1        0.0643
     43 C         145.3090  140.2025  164.3934 C.3     1  UNL1        0.0523
     44 C         143.2299  138.6483  164.5031 C.ar    1  UNL1        0.0630
@<TRIPOS>UNITY_ATOM_ATTR
26 1
charge -1
@<TRIPOS>BOND
     1    36    37    1
     2    37    38   ar
     3    38    39   ar
     4    39    40    1
     5    39    41   ar
     6    41    42   ar
     7    42    43    1
     8    42    44   ar
     9    44    32    1
    10    32    33    2
    11    32    34   am
    12    34    31    1
    13    31    30    1
    14    30    28    1
    15    28    29    1
    16    28     1    1
    17     1     2    1
    18     2     3    1
    19     3     4    1
    20     4     7    1
    21     7    12    1
    22    12    13    1
    23    13    14   ar
    24    14    15   ar
    25    15    16   ar
    26    16    17   ar
    27     7     8   am
    28     8     9    2
    29     8    10   am
    30    10    18    1
    31    18    19    1
    32    19    20   ar
    33    20    21   ar
    34    21    22   ar
    35    22    25    1
    36    25    26   ar
    37    25    27   ar
    38    22    23   ar
    39    23    24   ar
    40     4     5    1
    41     5     6    1
    42    44    37   ar
    43     6     1    1
    44    17    13   ar
    45    24    19   ar
    46    34    35    1
    47    10    11    1
@<TRIPOS>MOLECULE
*****
 44 47 0 0 0
SMALL
GASTEIGER

@<TRIPOS>ATOM
      1 N         143.6193  141.3640  161.1887 N.3     1  UNL1       -0.2738
      2 C         142.8109  141.9731  160.0818 C.3     1  UNL1        0.0738
      3 C         142.0045  141.0951  159.1713 C.3     1  UNL1        0.0372
      4 C         142.0066  139.6081  159.3679 C.3     1  UNL1        0.0799
      5 C         142.8150  138.9989  160.4749 C.3     1  UNL1        0.0372
      6 C         143.6214  139.8769  161.3854 C.3     1  UNL1        0.0738
      7 N         141.2002  138.7301  158.4575 N.am    1  UNL1       -0.2616
      8 C         141.8915  137.8444  157.4635 C.2     1  UNL1        0.3044
      9 O         143.3891  137.8368  157.3801 O.2     1  UNL1       -0.2526
     10 N         141.0851  136.9665  156.5531 N.am    1  UNL1       -0.2847
     11 H         140.1021  136.9715  156.6079 H       1  UNL1        0.1513
     12 C         139.7026  138.7377  158.5409 C.3     1  UNL1        0.1221
     13 C         139.0254  139.0586  159.8403 C.ar    1  UNL1        0.0047
     14 C         139.0143  138.1939  161.0659 C.ar    1  UNL1        0.0049
     15 C         138.2225  138.9014  162.1254 C.ar    1  UNL1        0.0352
     16 S         137.7442  140.2035  161.5546 S.2     1  UNL1       -0.0862
     17 C         138.2405  140.3006  160.1423 C.ar    1  UNL1        0.0328
     18 C         141.7763  136.0809  155.5592 C.3     1  UNL1        0.1177
     19 C         142.1748  134.6874  155.9460 C.ar    1  UNL1       -0.0025
     20 C         143.2568  134.4716  156.9622 C.ar    1  UNL1       -0.0026
     21 C         143.6553  133.0782  157.3490 C.ar    1  UNL1        0.0009
     22 C         142.9718  131.9006  156.7197 C.ar    1  UNL1        0.0140
     23 C         141.8898  132.1165  155.7035 C.ar    1  UNL1        0.0009
     24 C         141.4913  133.5099  155.3167 C.ar    1  UNL1       -0.0026
     25 C         143.3703  130.5072  157.1065 C.2     1  UNL1        0.0729
     26 O         144.4719  130.2910  158.1013 O.co2   1  UNL1       -0.5446
     27 O         142.6671  129.3300  156.4985 O.co2   1  UNL1       -0.5446
     28 C         144.4257  142.2420  162.0992 C.3     1  UNL1        0.0592
     29 C         144.1575  143.7170  162.1500 C.3     1  UNL1        0.0174
     30 C         145.5004  141.6451  162.9587 C.3     1  UNL1        0.0372
     31 C         145.1526  141.0577  164.2943 C.3     1  UNL1        0.0911
     32 C         143.3173  139.5946  165.4085 C.2     1  UNL1        0.2467
     33 O         144.3549  138.5779  165.7824 O.2     1  UNL1       -0.2701
     34 N         143.7161  140.8344  164.6644 N.am    1  UNL1       -0.3008
     35 H         143.0351  141.5017  164.4190 H       1  UNL1        0.1497
     36 C         141.6157  137.7462  163.7690 C.3     1  UNL1        0.0313
     37 C         141.0301  138.4472  164.9588 C.ar    1  UNL1       -0.0140
     38 C         139.5937  138.2240  165.3289 C.ar    1  UNL1        0.0267
     39 C         139.0082  138.9249  166.5188 C.ar    1  UNL1        0.1376
     40 CL        137.5717  138.7017  166.8889 Cl      1  UNL1       -0.0614
     41 N         139.8590  139.8491  167.3385 N.ar    1  UNL1       -0.2381
     42 C         141.2953  140.0723  166.9684 C.ar    1  UNL1        0.0643
     43 C         142.1462  140.9965  167.7882 C.3     1  UNL1        0.0523
     44 C         141.8809  139.3713  165.7786 C.ar    1  UNL1        0.0630
@<TRIPOS>UNITY_ATOM_ATTR
26 1
charge -1
@<TRIPOS>BOND
     1    36    37    1
     2    37    38   ar
     3    38    39   ar
     4    39    40    1
     5    39    41   ar
     6    41    42   ar
     7    42    43    1
     8    42    44   ar
     9    44    32    1
    10    32    33    2
    11    32    34   am
    12    34    31    1
    13    31    30    1
    14    30    28    1
    15    28    29    1
    16    28     1    1
    17     1     2    1
    18     2     3    1
    19     3     4    1
    20     4     7    1
    21     7    12    1
    22    12    13    1
    23    13    14   ar
    24    14    15   ar
    25    15    16   ar
    26    16    17   ar
    27     7     8   am
    28     8     9    2
    29     8    10   am
    30    10    18    1
    31    18    19    1
    32    19    20   ar
    33    20    21   ar
    34    21    22   ar
    35    22    25    1
    36    25    26   ar
    37    25    27   ar
    38    22    23   ar
    39    23    24   ar
    40     4     5    1
    41     5     6    1
    42    44    37   ar
    43     6     1    1
    44    17    13   ar
    45    24    19   ar
    46    34    35    1
    47    10    11    1
@<TRIPOS>MOLECULE
*****
 44 47 0 0 0
SMALL
GASTEIGER

@<TRIPOS>ATOM
      1 N         141.7661  138.3803  159.0792 N.3     1  UNL1       -0.2738
      2 C         141.2416  139.5847  159.8032 C.3     1  UNL1        0.0738
      3 C         141.8444  139.9929  161.1147 C.3     1  UNL1        0.0372
      4 C         142.9717  139.1967  161.7022 C.3     1  UNL1        0.0799
      5 C         143.4963  137.9922  160.9782 C.3     1  UNL1        0.0372
      6 C         142.8935  137.5840  159.6667 C.3     1  UNL1        0.0738
      7 N         143.5745  139.6049  163.0137 N.am    1  UNL1       -0.2616
      8 C         143.0336  139.0430  164.2950 C.2     1  UNL1        0.3044
      9 O         141.8900  138.0729  164.2648 O.2     1  UNL1       -0.2526
     10 N         143.6365  139.4512  165.6065 N.am    1  UNL1       -0.2847
     11 H         144.3871  140.0879  165.6263 H       1  UNL1        0.1513
     12 C         144.7182  140.5750  163.0439 C.3     1  UNL1        0.1221
     13 C         144.4518  142.0443  163.1866 C.ar    1  UNL1        0.0047
     14 C         144.5294  143.0650  162.0902 C.ar    1  UNL1        0.0049
     15 C         144.1866  144.4023  162.6767 C.ar    1  UNL1        0.0352
     16 S         143.8972  144.2082  164.1356 S.2     1  UNL1       -0.0862
     17 C         144.0611  142.7508  164.4507 C.ar    1  UNL1        0.0328
     18 C         143.0956  138.8893  166.8878 C.3     1  UNL1        0.1177
     19 C         142.4362  139.7954  167.8848 C.ar    1  UNL1       -0.0025
     20 C         142.3580  139.3925  169.3276 C.ar    1  UNL1       -0.0026
     21 C         141.6985  140.2987  170.3246 C.ar    1  UNL1        0.0009
     22 C         141.1172  141.6076  169.8789 C.ar    1  UNL1        0.0140
     23 C         141.1954  142.0104  168.4361 C.ar    1  UNL1        0.0009
     24 C         141.8549  141.1043  167.4391 C.ar    1  UNL1       -0.0026
     25 C         140.4577  142.5137  170.8759 C.2     1  UNL1        0.0729
     26 O         139.8501  143.8089  170.4252 O.co2   1  UNL1       -0.5446
     27 O         140.4058  142.1246  172.3236 O.co2   1  UNL1       -0.5446
     28 C         141.1633  137.9721  157.7678 C.3     1  UNL1        0.0592
     29 C         139.7993  138.4643  157.3837 C.3     1  UNL1        0.0174
     30 C         141.9244  137.0717  156.8404 C.3     1  UNL1        0.0372
     31 C         141.1903  136.0780  155.9898 C.3     1  UNL1        0.0911
     32 C         143.0388  134.3307  155.4603 C.2     1  UNL1        0.2467
     33 O         143.9631  135.4354  155.0417 O.2     1  UNL1       -0.2701
     34 N         141.6524  134.6520  155.9344 N.am    1  UNL1       -0.3008
     35 H         141.0458  133.9269  156.2091 H       1  UNL1        0.1497
     36 C         144.5672  133.1587  157.7604 C.3     1  UNL1        0.0313
     37 C         144.2650  132.3187  156.5550 C.ar    1  UNL1       -0.0140
     38 C         144.7271  130.8927  156.4995 C.ar    1  UNL1        0.0267
     39 C         144.4250  130.0528  155.2940 C.ar    1  UNL1        0.1376
     40 CL        144.8871  128.6267  155.2386 Cl      1  UNL1       -0.0614
     41 N         143.6608  130.6387  154.1440 N.ar    1  UNL1       -0.2381
     42 C         143.1987  132.0647  154.1995 C.ar    1  UNL1        0.0643
     43 C         142.4345  132.6507  153.0494 C.3     1  UNL1        0.0523
     44 C         143.5009  132.9047  155.4049 C.ar    1  UNL1        0.0630
@<TRIPOS>UNITY_ATOM_ATTR
26 1
charge -1
@<TRIPOS>BOND
     1    36    37    1
     2    37    38   ar
     3    38    39   ar
     4    39    40    1
     5    39    41   ar
     6    41    42   ar
     7    42    43    1
     8    42    44   ar
     9    44    32    1
    10    32    33    2
    11    32    34   am
    12    34    31    1
    13    31    30    1
    14    30    28    1
    15    28    29    1
    16    28     1    1
    17     1     2    1
    18     2     3    1
    19     3     4    1
    20     4     7    1
    21     7    12    1
    22    12    13    1
    23    13    14   ar
    24    14    15   ar
    25    15    16   ar
    26    16    17   ar
    27     7     8   am
    28     8     9    2
    29     8    10   am
    30    10    18    1
    31    18    19    1
    32    19    20   ar
    33    20    21   ar
    34    21    22   ar
    35    22    25    1
    36    25    26   ar
    37    25    27   ar
    38    22    23   ar
    39    23    24   ar
    40     4     5    1
    41     5     6    1
    42    44    37   ar
    43     6     1    1
    44    17    13   ar
    45    24    19   ar
    46    34    35    1
    47    10    11    1
@<TRIPOS>MOLECULE
*****
 44 47 0 0 0
SMALL
GASTEIGER

@<TRIPOS>ATOM
      1 N         141.8637  138.9235  158.7528 N.3     1  UNL1       -0.2738
      2 C         142.3646  139.8546  159.8167 C.3     1  UNL1        0.0738
      3 C         141.4744  140.2309  160.9640 C.3     1  UNL1        0.0372
      4 C         140.0834  139.6759  161.0472 C.3     1  UNL1        0.0799
      5 C         139.5824  138.7447  159.9832 C.3     1  UNL1        0.0372
      6 C         140.4725  138.3685  158.8360 C.3     1  UNL1        0.0738
      7 N         139.1932  140.0522  162.1944 N.am    1  UNL1       -0.2616
      8 C         139.4121  139.4392  163.5459 C.2     1  UNL1        0.3044
      9 O         140.5210  138.4500  163.7501 O.2     1  UNL1       -0.2526
     10 N         138.5219  139.8154  164.6931 N.am    1  UNL1       -0.2847
     11 H         137.7941  140.4646  164.5591 H       1  UNL1        0.1513
     12 C         138.0843  141.0413  161.9902 C.3     1  UNL1        0.1221
     13 C         138.2245  142.4426  162.5067 C.ar    1  UNL1        0.0047
     14 C         137.6861  142.9609  163.8073 C.ar    1  UNL1        0.0049
     15 C         138.0567  144.4102  163.9177 C.ar    1  UNL1        0.0352
     16 S         138.8241  144.7876  162.6854 S.2     1  UNL1       -0.0862
     17 C         138.9279  143.5715  161.8134 C.ar    1  UNL1        0.0328
     18 C         138.7408  139.2025  166.0446 C.3     1  UNL1        0.1177
     19 C         139.2265  140.0501  167.1828 C.ar    1  UNL1       -0.0025
     20 C         140.0516  141.2724  166.9088 C.ar    1  UNL1       -0.0026
     21 C         140.5374  142.1200  168.0471 C.ar    1  UNL1        0.0009
     22 C         140.1979  141.7454  169.4593 C.ar    1  UNL1        0.0140
     23 C         139.3728  140.5231  169.7332 C.ar    1  UNL1        0.0009
     24 C         138.8870  139.6755  168.5950 C.ar    1  UNL1       -0.0026
     25 C         140.6836  142.5930  170.5975 C.2     1  UNL1        0.0729
     26 O         140.2954  142.2518  172.0056 O.co2   1  UNL1       -0.5446
     27 O         141.5576  143.7818  170.3276 O.co2   1  UNL1       -0.5446
     28 C         142.7538  138.5473  157.6056 C.3     1  UNL1        0.0592
     29 C         143.5626  139.6001  156.9072 C.3     1  UNL1        0.0174
     30 C         142.8352  137.1184  157.1567 C.3     1  UNL1        0.0372
     31 C         143.5573  136.7705  155.8889 C.3     1  UNL1        0.0911
     32 C         143.1091  134.2177  155.7087 C.2     1  UNL1        0.2467
     33 O         141.6499  134.4561  155.9618 O.2     1  UNL1       -0.2701
     34 N         144.0628  135.3749  155.6723 N.am    1  UNL1       -0.3008
     35 H         145.0205  135.2185  155.5062 H       1  UNL1        0.1497
     36 C         144.8202  132.9018  157.7921 C.3     1  UNL1        0.0313
     37 C         144.4701  132.1642  156.5338 C.ar    1  UNL1       -0.0140
     38 C         144.9755  130.7686  156.3172 C.ar    1  UNL1        0.0267
     39 C         144.6253  130.0310  155.0589 C.ar    1  UNL1        0.1376
     40 CL        145.1308  128.6354  154.8423 Cl      1  UNL1       -0.0614
     41 N         143.7698  130.6890  154.0172 N.ar    1  UNL1       -0.2381
     42 C         143.2644  132.0845  154.2338 C.ar    1  UNL1        0.0643
     43 C         142.4088  132.7425  153.1921 C.3     1  UNL1        0.0523
     44 C         143.6145  132.8221  155.4921 C.ar    1  UNL1        0.0630
@<TRIPOS>UNITY_ATOM_ATTR
26 1
charge -1
@<TRIPOS>BOND
     1    36    37    1
     2    37    38   ar
     3    38    39   ar
     4    39    40    1
     5    39    41   ar
     6    41    42   ar
     7    42    43    1
     8    42    44   ar
     9    44    32    1
    10    32    33    2
    11    32    34   am
    12    34    31    1
    13    31    30    1
    14    30    28    1
    15    28    29    1
    16    28     1    1
    17     1     2    1
    18     2     3    1
    19     3     4    1
    20     4     7    1
    21     7    12    1
    22    12    13    1
    23    13    14   ar
    24    14    15   ar
    25    15    16   ar
    26    16    17   ar
    27     7     8   am
    28     8     9    2
    29     8    10   am
    30    10    18    1
    31    18    19    1
    32    19    20   ar
    33    20    21   ar
    34    21    22   ar
    35    22    25    1
    36    25    26   ar
    37    25    27   ar
    38    22    23   ar
    39    23    24   ar
    40     4     5    1
    41     5     6    1
    42    44    37   ar
    43     6     1    1
    44    17    13   ar
    45    24    19   ar
    46    34    35    1
    47    10    11    1
@<TRIPOS>MOLECULE
*****
 44 47 0 0 0
SMALL
GASTEIGER

@<TRIPOS>ATOM
      1 N         138.6957  140.5383  158.7631 N.3     1  UNL1       -0.2738
      2 C         139.3744  139.2044  158.8638 C.3     1  UNL1        0.0738
      3 C         139.8325  138.6948  160.1981 C.3     1  UNL1        0.0372
      4 C         139.6119  139.5191  161.4317 C.3     1  UNL1        0.0799
      5 C         138.9331  140.8530  161.3311 C.3     1  UNL1        0.0372
      6 C         138.4750  141.3626  159.9967 C.3     1  UNL1        0.0738
      7 N         140.0700  139.0095  162.7661 N.am    1  UNL1       -0.2616
      8 C         139.3036  139.3613  164.0067 C.2     1  UNL1        0.3044
      9 O         138.0792  140.2227  163.9129 O.2     1  UNL1       -0.2526
     10 N         139.7617  138.8517  165.3410 N.am    1  UNL1       -0.2847
     11 H         140.5653  138.2864  165.4025 H       1  UNL1        0.1513
     12 C         141.2944  138.1481  162.8599 C.3     1  UNL1        0.1221
     13 C         142.6172  138.7609  163.2129 C.ar    1  UNL1        0.0047
     14 C         143.5187  139.5117  162.2782 C.ar    1  UNL1        0.0049
     15 C         144.7295  139.9453  163.0502 C.ar    1  UNL1        0.0352
     16 S         144.5764  139.4625  164.4621 S.2     1  UNL1       -0.0862
     17 C         143.2709  138.7305  164.5626 C.ar    1  UNL1        0.0328
     18 C         138.9954  139.2035  166.5815 C.3     1  UNL1        0.1177
     19 C         139.4571  140.3336  167.4532 C.ar    1  UNL1       -0.0025
     20 C         139.3079  140.2411  168.9428 C.ar    1  UNL1       -0.0026
     21 C         139.7696  141.3712  169.8144 C.ar    1  UNL1        0.0009
     22 C         140.3805  142.5938  169.1964 C.ar    1  UNL1        0.0140
     23 C         140.5297  142.6863  167.7067 C.ar    1  UNL1        0.0009
     24 C         140.0680  141.5562  166.8351 C.ar    1  UNL1       -0.0026
     25 C         140.8422  143.7239  170.0680 C.2     1  UNL1        0.0729
     26 O         142.2347  143.7204  170.6256 O.co2   1  UNL1       -0.5446
     27 O         139.9114  144.8574  170.3820 O.co2   1  UNL1       -0.5446
     28 C         138.2376  141.0479  157.4287 C.3     1  UNL1        0.0592
     29 C         136.7793  141.0261  157.0779 C.3     1  UNL1        0.0174
     30 C         139.2377  141.5792  156.4452 C.3     1  UNL1        0.0372
     31 C         140.1518  142.7019  156.8375 C.3     1  UNL1        0.0911
     32 C         141.7149  143.8140  158.5896 C.2     1  UNL1        0.2467
     33 O         142.1971  144.7787  157.5471 O.2     1  UNL1       -0.2701
     34 N         140.6923  142.7756  158.2348 N.am    1  UNL1       -0.3008
     35 H         140.3759  142.1425  158.9191 H       1  UNL1        0.1497
     36 C         144.2179  142.3254  159.3103 C.3     1  UNL1        0.0313
     37 C         143.5069  143.1435  160.3473 C.ar    1  UNL1       -0.0140
     38 C         144.0473  143.2172  161.7445 C.ar    1  UNL1        0.0267
     39 C         143.3363  144.0353  162.7815 C.ar    1  UNL1        0.1376
     40 CL        143.8768  144.1091  164.1788 Cl      1  UNL1       -0.0614
     41 N         142.0849  144.7796  162.4211 N.ar    1  UNL1       -0.2381
     42 C         141.5444  144.7058  161.0239 C.ar    1  UNL1        0.0643
     43 C         140.2929  145.4502  160.6635 C.3     1  UNL1        0.0523
     44 C         142.2554  143.8878  159.9869 C.ar    1  UNL1        0.0630
@<TRIPOS>UNITY_ATOM_ATTR
26 1
charge -1
@<TRIPOS>BOND
     1    36    37    1
     2    37    38   ar
     3    38    39   ar
     4    39    40    1
     5    39    41   ar
     6    41    42   ar
     7    42    43    1
     8    42    44   ar
     9    44    32    1
    10    32    33    2
    11    32    34   am
    12    34    31    1
    13    31    30    1
    14    30    28    1
    15    28    29    1
    16    28     1    1
    17     1     2    1
    18     2     3    1
    19     3     4    1
    20     4     7    1
    21     7    12    1
    22    12    13    1
    23    13    14   ar
    24    14    15   ar
    25    15    16   ar
    26    16    17   ar
    27     7     8   am
    28     8     9    2
    29     8    10   am
    30    10    18    1
    31    18    19    1
    32    19    20   ar
    33    20    21   ar
    34    21    22   ar
    35    22    25    1
    36    25    26   ar
    37    25    27   ar
    38    22    23   ar
    39    23    24   ar
    40     4     5    1
    41     5     6    1
    42    44    37   ar
    43     6     1    1
    44    17    13   ar
    45    24    19   ar
    46    34    35    1
    47    10    11    1
@<TRIPOS>MOLECULE
*****
 44 47 0 0 0
SMALL
GASTEIGER

@<TRIPOS>ATOM
      1 N         140.4739  139.2282  157.5815 N.3     1  UNL1       -0.2738
      2 C         139.6946  138.2857  158.4500 C.3     1  UNL1        0.0738
      3 C         139.9484  138.2439  159.9277 C.3     1  UNL1        0.0372
      4 C         140.9816  139.1446  160.5370 C.3     1  UNL1        0.0799
      5 C         141.7610  140.0872  159.6685 C.3     1  UNL1        0.0372
      6 C         141.5071  140.1290  158.1907 C.3     1  UNL1        0.0738
      7 N         141.2354  139.1028  162.0148 N.am    1  UNL1       -0.2616
      8 C         140.1461  139.4817  162.9739 C.2     1  UNL1        0.3044
      9 O         138.8029  139.9022  162.4552 O.2     1  UNL1       -0.2526
     10 N         140.3999  139.4399  164.4517 N.am    1  UNL1       -0.2847
     11 H         141.2815  139.1638  164.7921 H       1  UNL1        0.1513
     12 C         142.5786  138.6823  162.5334 C.3     1  UNL1        0.1221
     13 C         143.6188  139.7164  162.8473 C.ar    1  UNL1        0.0047
     14 C         144.1558  140.7440  161.8956 C.ar    1  UNL1        0.0049
     15 C         145.1735  141.5672  162.6281 C.ar    1  UNL1        0.0352
     16 S         145.2655  141.0484  164.0326 S.2     1  UNL1       -0.0862
     17 C         144.3046  139.9046  164.1680 C.ar    1  UNL1        0.0328
     18 C         139.3106  139.8187  165.4108 C.3     1  UNL1        0.1177
     19 C         139.6438  140.5711  166.6649 C.ar    1  UNL1       -0.0025
     20 C         139.3385  139.9690  168.0043 C.ar    1  UNL1       -0.0026
     21 C         139.6716  140.7214  169.2585 C.ar    1  UNL1        0.0009
     22 C         140.3100  142.0761  169.1731 C.ar    1  UNL1        0.0140
     23 C         140.6153  142.6782  167.8337 C.ar    1  UNL1        0.0009
     24 C         140.2822  141.9258  166.5796 C.ar    1  UNL1       -0.0026
     25 C         140.6431  142.8285  170.4273 C.2     1  UNL1        0.0729
     26 O         140.6044  142.1297  171.7539 O.co2   1  UNL1       -0.5446
     27 O         141.0151  144.2799  170.3547 O.co2   1  UNL1       -0.5446
     28 C         140.2200  139.2700  156.1037 C.3     1  UNL1        0.0592
     29 C         141.2073  139.9360  155.1916 C.3     1  UNL1        0.0174
     30 C         138.9789  138.6459  155.5380 C.3     1  UNL1        0.0372
     31 C         139.0268  137.2546  154.9794 C.3     1  UNL1        0.0911
     32 C         141.2451  135.9081  155.1059 C.2     1  UNL1        0.2467
     33 O         141.7642  136.6509  153.9106 O.2     1  UNL1       -0.2701
     34 N         139.8765  136.2099  155.6403 N.am    1  UNL1       -0.3008
     35 H         139.5358  135.7223  156.4249 H       1  UNL1        0.1497
     36 C         141.2771  133.1047  154.0382 C.3     1  UNL1        0.0313
     37 C         142.1108  133.4617  155.2329 C.ar    1  UNL1       -0.0140
     38 C         142.9605  132.4171  155.8938 C.ar    1  UNL1        0.0267
     39 C         143.7941  132.7742  157.0886 C.ar    1  UNL1        0.1376
     40 CL        144.6438  131.7295  157.7495 Cl      1  UNL1       -0.0614
     41 N         143.7782  134.1758  157.6225 N.ar    1  UNL1       -0.2381
     42 C         142.9285  135.2204  156.9616 C.ar    1  UNL1        0.0643
     43 C         142.9125  136.6222  157.4955 C.3     1  UNL1        0.0523
     44 C         142.0948  134.8634  155.7668 C.ar    1  UNL1        0.0630
@<TRIPOS>UNITY_ATOM_ATTR
26 1
charge -1
@<TRIPOS>BOND
     1    36    37    1
     2    37    38   ar
     3    38    39   ar
     4    39    40    1
     5    39    41   ar
     6    41    42   ar
     7    42    43    1
     8    42    44   ar
     9    44    32    1
    10    32    33    2
    11    32    34   am
    12    34    31    1
    13    31    30    1
    14    30    28    1
    15    28    29    1
    16    28     1    1
    17     1     2    1
    18     2     3    1
    19     3     4    1
    20     4     7    1
    21     7    12    1
    22    12    13    1
    23    13    14   ar
    24    14    15   ar
    25    15    16   ar
    26    16    17   ar
    27     7     8   am
    28     8     9    2
    29     8    10   am
    30    10    18    1
    31    18    19    1
    32    19    20   ar
    33    20    21   ar
    34    21    22   ar
    35    22    25    1
    36    25    26   ar
    37    25    27   ar
    38    22    23   ar
    39    23    24   ar
    40     4     5    1
    41     5     6    1
    42    44    37   ar
    43     6     1    1
    44    17    13   ar
    45    24    19   ar
    46    34    35    1
    47    10    11    1
