@<TRIPOS>MOLECULE
*****
 23 25 0 0 0
SMALL
GASTEIGER

@<TRIPOS>ATOM
      1 C         145.1268  141.4864  163.6567 C.3     1  UNL1        0.0896
      2 N         143.9948  141.1740  164.5899 N.3     1  UNL1       -0.2715
      3 C         143.7021  142.0847  165.7453 C.3     1  UNL1        0.0725
      4 C         142.5701  141.7723  166.6785 C.3     1  UNL1        0.0238
      5 C         141.7307  140.5491  166.4563 C.3     1  UNL1        0.0489
      6 C         142.0234  139.6384  165.3010 C.3     1  UNL1        0.0238
      7 C         143.1555  139.9509  164.3677 C.3     1  UNL1        0.0725
      8 C         141.0664  141.1017  167.6824 C.ar    1  UNL1       -0.0204
      9 C         140.4611  140.1713  168.6913 C.ar    1  UNL1       -0.0042
     10 C         139.7968  140.7238  169.9174 C.ar    1  UNL1       -0.0003
     11 C         139.7378  142.2069  170.1346 C.ar    1  UNL1       -0.0000
     12 C         140.3431  143.1373  169.1258 C.ar    1  UNL1       -0.0003
     13 C         141.0074  142.5847  167.8996 C.ar    1  UNL1       -0.0042
     14 C         140.6606  139.5179  166.6600 C.3     1  UNL1        0.1466
     15 O         139.8519  139.0356  165.4923 O.3     1  UNL1       -0.3486
     16 C         138.4565  139.5454  165.2847 C.3     1  UNL1        0.1702
     17 C         138.2280  140.8146  164.5187 C.ar    1  UNL1        0.0269
     18 C         137.5981  140.7664  163.1582 C.ar    1  UNL1        0.0970
     19 N         137.3696  142.0357  162.3923 N.ar    1  UNL1       -0.2421
     20 C         137.7709  143.3531  162.9867 C.ar    1  UNL1        0.1055
     21 C         138.4008  143.4013  164.3472 C.ar    1  UNL1        0.0535
     22 BR        138.8022  144.7186  164.9417 Br      1  UNL1       -0.0474
     23 C         138.6294  142.1320  165.1132 C.ar    1  UNL1        0.0080
@<TRIPOS>BOND
     1     1     2    1
     2     2     3    1
     3     3     4    1
     4     4     5    1
     5     5    14    1
     6    14    15    1
     7    15    16    1
     8    16    17    1
     9    17    18   ar
    10    18    19   ar
    11    19    20   ar
    12    20    21   ar
    13    21    22    1
    14    21    23   ar
    15     5     8    1
    16     8     9   ar
    17     9    10   ar
    18    10    11   ar
    19    11    12   ar
    20    12    13   ar
    21     5     6    1
    22     6     7    1
    23     7     2    1
    24    23    17   ar
    25    13     8   ar
@<TRIPOS>MOLECULE
*****
 23 25 0 0 0
SMALL
GASTEIGER

@<TRIPOS>ATOM
      1 C         144.2650  139.1340  163.7365 C.3     1  UNL1        0.0896
      2 N         143.0663  139.5708  164.5254 N.3     1  UNL1       -0.2715
      3 C         143.2370  140.0954  165.9202 C.3     1  UNL1        0.0725
      4 C         142.0384  140.5323  166.7092 C.3     1  UNL1        0.0238
      5 C         140.6690  140.4444  166.1033 C.3     1  UNL1        0.0489
      6 C         140.4983  139.9197  164.7085 C.3     1  UNL1        0.0238
      7 C         141.6970  139.4829  163.9196 C.3     1  UNL1        0.0725
      8 C         140.3223  141.0064  167.4502 C.ar    1  UNL1       -0.0204
      9 C         140.6968  142.4178  167.7930 C.ar    1  UNL1       -0.0042
     10 C         140.3501  142.9798  169.1398 C.ar    1  UNL1       -0.0003
     11 C         139.6290  142.1302  170.1439 C.ar    1  UNL1       -0.0000
     12 C         139.2545  140.7187  169.8012 C.ar    1  UNL1       -0.0003
     13 C         139.6012  140.1568  168.4543 C.ar    1  UNL1       -0.0042
     14 C         139.1792  140.5517  165.9652 C.3     1  UNL1        0.1466
     15 O         138.5817  141.1372  164.7201 O.3     1  UNL1       -0.3486
     16 C         138.0972  142.5569  164.7167 C.3     1  UNL1        0.1702
     17 C         138.8337  143.5987  163.9280 C.ar    1  UNL1        0.0269
     18 C         138.1133  144.3948  162.8804 C.ar    1  UNL1        0.0970
     19 N         138.8498  145.4366  162.0917 N.ar    1  UNL1       -0.2421
     20 C         140.3067  145.6825  162.3505 C.ar    1  UNL1        0.1055
     21 C         141.0271  144.8864  163.3981 C.ar    1  UNL1        0.0535
     22 BR        142.4840  145.1323  163.6569 Br      1  UNL1       -0.0474
     23 C         140.2907  143.8446  164.1868 C.ar    1  UNL1        0.0080
@<TRIPOS>BOND
     1     1     2    1
     2     2     3    1
     3     3     4    1
     4     4     5    1
     5     5    14    1
     6    14    15    1
     7    15    16    1
     8    16    17    1
     9    17    18   ar
    10    18    19   ar
    11    19    20   ar
    12    20    21   ar
    13    21    22    1
    14    21    23   ar
    15     5     8    1
    16     8     9   ar
    17     9    10   ar
    18    10    11   ar
    19    11    12   ar
    20    12    13   ar
    21     5     6    1
    22     6     7    1
    23     7     2    1
    24    23    17   ar
    25    13     8   ar
@<TRIPOS>MOLECULE
*****
 23 25 0 0 0
SMALL
GASTEIGER

@<TRIPOS>ATOM
      1 C         137.8975  144.3348  163.1669 C.3     1  UNL1        0.0896
      2 N         138.3502  143.2222  164.0653 N.3     1  UNL1       -0.2715
      3 C         139.4031  143.4772  165.1027 C.3     1  UNL1        0.0725
      4 C         139.8559  142.3647  166.0012 C.3     1  UNL1        0.0238
      5 C         139.2557  140.9971  165.8623 C.3     1  UNL1        0.0489
      6 C         138.2027  140.7420  164.8248 C.3     1  UNL1        0.0238
      7 C         137.7500  141.8546  163.9264 C.3     1  UNL1        0.0725
      8 C         140.2160  140.7470  166.9871 C.ar    1  UNL1       -0.0204
      9 C         139.7150  140.2129  168.2962 C.ar    1  UNL1       -0.0042
     10 C         140.6753  139.9628  169.4211 C.ar    1  UNL1       -0.0003
     11 C         142.1366  140.2468  169.2368 C.ar    1  UNL1       -0.0000
     12 C         142.6376  140.7809  167.9277 C.ar    1  UNL1       -0.0003
     13 C         141.6773  141.0310  166.8028 C.ar    1  UNL1       -0.0042
     14 C         138.9889  139.5425  166.1140 C.3     1  UNL1        0.1466
     15 O         138.9338  138.5803  164.9646 O.3     1  UNL1       -0.3486
     16 C         140.0205  137.5619  164.7863 C.3     1  UNL1        0.1702
     17 C         141.2143  137.8801  163.9357 C.ar    1  UNL1        0.0269
     18 C         141.2040  137.5455  162.4734 C.ar    1  UNL1        0.0970
     19 N         142.3979  137.8637  161.6229 N.ar    1  UNL1       -0.2421
     20 C         143.6020  138.5165  162.2344 C.ar    1  UNL1        0.1055
     21 C         143.6123  138.8511  163.6967 C.ar    1  UNL1        0.0535
     22 BR        144.8164  139.5038  164.3082 Br      1  UNL1       -0.0474
     23 C         142.4185  138.5328  164.5473 C.ar    1  UNL1        0.0080
@<TRIPOS>BOND
     1     1     2    1
     2     2     3    1
     3     3     4    1
     4     4     5    1
     5     5    14    1
     6    14    15    1
     7    15    16    1
     8    16    17    1
     9    17    18   ar
    10    18    19   ar
    11    19    20   ar
    12    20    21   ar
    13    21    22    1
    14    21    23   ar
    15     5     8    1
    16     8     9   ar
    17     9    10   ar
    18    10    11   ar
    19    11    12   ar
    20    12    13   ar
    21     5     6    1
    22     6     7    1
    23     7     2    1
    24    23    17   ar
    25    13     8   ar
@<TRIPOS>MOLECULE
*****
 23 25 0 0 0
SMALL
GASTEIGER

@<TRIPOS>ATOM
      1 C         138.2253  143.9485  163.3332 C.3     1  UNL1        0.0896
      2 N         138.5634  142.8149  164.2554 N.3     1  UNL1       -0.2715
      3 C         139.6723  142.9656  165.2541 C.3     1  UNL1        0.0725
      4 C         140.0104  141.8319  166.1763 C.3     1  UNL1        0.0238
      5 C         139.2395  140.5475  166.0998 C.3     1  UNL1        0.0489
      6 C         138.1306  140.3967  165.1011 C.3     1  UNL1        0.0238
      7 C         137.7925  141.5304  164.1789 C.3     1  UNL1        0.0725
      8 C         140.1962  140.2117  167.2053 C.ar    1  UNL1       -0.0204
      9 C         141.6179  139.8568  166.8848 C.ar    1  UNL1       -0.0042
     10 C         142.5746  139.5210  167.9903 C.ar    1  UNL1       -0.0003
     11 C         142.1094  139.5400  169.4162 C.ar    1  UNL1       -0.0000
     12 C         140.6877  139.8949  169.7367 C.ar    1  UNL1       -0.0003
     13 C         139.7310  140.2307  168.6312 C.ar    1  UNL1       -0.0042
     14 C         138.8009  139.1463  166.4072 C.3     1  UNL1        0.1466
     15 O         138.6377  138.1509  165.2970 O.3     1  UNL1       -0.3486
     16 C         139.8324  137.4125  164.7702 C.3     1  UNL1        0.1702
     17 C         140.3442  137.7015  163.3901 C.ar    1  UNL1        0.0269
     18 C         139.3789  137.9373  162.2664 C.ar    1  UNL1        0.0970
     19 N         139.8907  138.2262  160.8864 N.ar    1  UNL1       -0.2421
     20 C         141.3677  138.2794  160.6300 C.ar    1  UNL1        0.1055
     21 C         142.3329  138.0436  161.7538 C.ar    1  UNL1        0.0535
     22 BR        143.8099  138.0968  161.4974 Br      1  UNL1       -0.0474
     23 C         141.8212  137.7547  163.1338 C.ar    1  UNL1        0.0080
@<TRIPOS>BOND
     1     1     2    1
     2     2     3    1
     3     3     4    1
     4     4     5    1
     5     5    14    1
     6    14    15    1
     7    15    16    1
     8    16    17    1
     9    17    18   ar
    10    18    19   ar
    11    19    20   ar
    12    20    21   ar
    13    21    22    1
    14    21    23   ar
    15     5     8    1
    16     8     9   ar
    17     9    10   ar
    18    10    11   ar
    19    11    12   ar
    20    12    13   ar
    21     5     6    1
    22     6     7    1
    23     7     2    1
    24    23    17   ar
    25    13     8   ar
@<TRIPOS>MOLECULE
*****
 23 25 0 0 0
SMALL
GASTEIGER

@<TRIPOS>ATOM
      1 C         142.4152  142.5916  170.8064 C.3     1  UNL1        0.0896
      2 N         142.1750  141.9205  169.4866 N.3     1  UNL1       -0.2715
      3 C         141.0440  140.9469  169.3351 C.3     1  UNL1        0.0725
      4 C         140.8038  140.2758  168.0153 C.3     1  UNL1        0.0238
      5 C         141.6946  140.5782  166.8470 C.3     1  UNL1        0.0489
      6 C         142.8256  141.5518  166.9985 C.3     1  UNL1        0.0238
      7 C         143.0658  142.2229  168.3183 C.3     1  UNL1        0.0725
      8 C         140.7602  139.5906  166.2133 C.ar    1  UNL1       -0.0204
      9 C         141.3015  138.5079  165.3274 C.ar    1  UNL1       -0.0042
     10 C         140.3672  137.5202  164.6937 C.ar    1  UNL1       -0.0003
     11 C         138.8916  137.6153  164.9460 C.ar    1  UNL1       -0.0000
     12 C         138.3503  138.6979  165.8318 C.ar    1  UNL1       -0.0003
     13 C         139.2847  139.6856  166.4655 C.ar    1  UNL1       -0.0042
     14 C         142.2609  140.5377  165.4586 C.3     1  UNL1        0.1466
     15 O         142.4872  141.8138  164.7033 O.3     1  UNL1       -0.3486
     16 C         141.7394  142.0739  163.4293 C.3     1  UNL1        0.1702
     17 C         140.2759  141.7571  163.3406 C.ar    1  UNL1        0.0269
     18 C         139.2799  142.5999  164.0806 C.ar    1  UNL1        0.0970
     19 N         137.8165  142.2830  163.9918 N.ar    1  UNL1       -0.2421
     20 C         137.3490  141.1234  163.1632 C.ar    1  UNL1        0.1055
     21 C         138.3451  140.2806  162.4231 C.ar    1  UNL1        0.0535
     22 BR        137.8776  139.1210  161.5945 Br      1  UNL1       -0.0474
     23 C         139.8085  140.5974  162.5118 C.ar    1  UNL1        0.0080
@<TRIPOS>BOND
     1     1     2    1
     2     2     3    1
     3     3     4    1
     4     4     5    1
     5     5    14    1
     6    14    15    1
     7    15    16    1
     8    16    17    1
     9    17    18   ar
    10    18    19   ar
    11    19    20   ar
    12    20    21   ar
    13    21    22    1
    14    21    23   ar
    15     5     8    1
    16     8     9   ar
    17     9    10   ar
    18    10    11   ar
    19    11    12   ar
    20    12    13   ar
    21     5     6    1
    22     6     7    1
    23     7     2    1
    24    23    17   ar
    25    13     8   ar
@<TRIPOS>MOLECULE
*****
 23 25 0 0 0
SMALL
GASTEIGER

@<TRIPOS>ATOM
      1 C         138.7568  137.9490  163.1926 C.3     1  UNL1        0.0896
      2 N         139.4290  138.7157  164.2928 N.3     1  UNL1       -0.2715
      3 C         138.6123  139.3011  165.4064 C.3     1  UNL1        0.0725
      4 C         139.2845  140.0677  166.5066 C.3     1  UNL1        0.0238
      5 C         140.7734  140.2489  166.4932 C.3     1  UNL1        0.0489
      6 C         141.5901  139.6634  165.3796 C.3     1  UNL1        0.0238
      7 C         140.9179  138.8968  164.2794 C.3     1  UNL1        0.0725
      8 C         140.4327  140.9862  167.7543 C.ar    1  UNL1       -0.0204
      9 C         140.7835  142.4380  167.8924 C.ar    1  UNL1       -0.0042
     10 C         140.4428  143.1753  169.1534 C.ar    1  UNL1       -0.0003
     11 C         139.7513  142.4608  170.2764 C.ar    1  UNL1       -0.0000
     12 C         139.4004  141.0089  170.1384 C.ar    1  UNL1       -0.0003
     13 C         139.7412  140.2716  168.8773 C.ar    1  UNL1       -0.0042
     14 C         142.1441  140.6861  166.9178 C.3     1  UNL1        0.1466
     15 O         143.1926  140.9750  165.8848 O.3     1  UNL1       -0.3486
     16 C         143.6836  142.3785  165.6866 C.3     1  UNL1        0.1702
     17 C         143.1013  143.2299  164.5976 C.ar    1  UNL1        0.0269
     18 C         143.9790  143.7372  163.4919 C.ar    1  UNL1        0.0970
     19 N         143.3967  144.5886  162.4029 N.ar    1  UNL1       -0.2421
     20 C         141.9368  144.9328  162.4195 C.ar    1  UNL1        0.1055
     21 C         141.0591  144.4255  163.5251 C.ar    1  UNL1        0.0535
     22 BR        139.5993  144.7697  163.5417 Br      1  UNL1       -0.0474
     23 C         141.6414  143.5741  164.6142 C.ar    1  UNL1        0.0080
@<TRIPOS>BOND
     1     1     2    1
     2     2     3    1
     3     3     4    1
     4     4     5    1
     5     5    14    1
     6    14    15    1
     7    15    16    1
     8    16    17    1
     9    17    18   ar
    10    18    19   ar
    11    19    20   ar
    12    20    21   ar
    13    21    22    1
    14    21    23   ar
    15     5     8    1
    16     8     9   ar
    17     9    10   ar
    18    10    11   ar
    19    11    12   ar
    20    12    13   ar
    21     5     6    1
    22     6     7    1
    23     7     2    1
    24    23    17   ar
    25    13     8   ar
@<TRIPOS>MOLECULE
*****
 23 25 0 0 0
SMALL
GASTEIGER

@<TRIPOS>ATOM
      1 C         139.8934  142.7147  170.9731 C.3     1  UNL1        0.0896
      2 N         140.0281  142.1621  169.5852 N.3     1  UNL1       -0.2715
      3 C         139.8877  140.6877  169.3480 C.3     1  UNL1        0.0725
      4 C         140.0224  140.1351  167.9600 C.3     1  UNL1        0.0238
      5 C         140.2975  141.0569  166.8092 C.3     1  UNL1        0.0489
      6 C         140.4379  142.5314  167.0463 C.3     1  UNL1        0.0238
      7 C         140.3032  143.0840  168.4343 C.3     1  UNL1        0.0725
      8 C         140.2465  139.7443  166.0850 C.ar    1  UNL1       -0.0204
      9 C         138.9347  139.0414  165.8980 C.ar    1  UNL1       -0.0042
     10 C         138.8836  137.7288  165.1738 C.ar    1  UNL1       -0.0003
     11 C         140.1445  137.1191  164.6367 C.ar    1  UNL1       -0.0000
     12 C         141.4563  137.8219  164.8238 C.ar    1  UNL1       -0.0003
     13 C         141.5074  139.1345  165.5479 C.ar    1  UNL1       -0.0042
     14 C         140.5549  141.5229  165.4068 C.3     1  UNL1        0.1466
     15 O         139.5411  142.3741  164.7014 O.3     1  UNL1       -0.3486
     16 C         139.3604  142.2507  163.2174 C.3     1  UNL1        0.1702
     17 C         139.2528  140.8947  162.5852 C.ar    1  UNL1        0.0269
     18 C         137.9177  140.2186  162.4830 C.ar    1  UNL1        0.0970
     19 N         137.8103  138.8626  161.8508 N.ar    1  UNL1       -0.2421
     20 C         139.0378  138.1828  161.3207 C.ar    1  UNL1        0.1055
     21 C         140.3729  138.8589  161.4229 C.ar    1  UNL1        0.0535
     22 BR        141.6004  138.1790  160.8929 Br      1  UNL1       -0.0474
     23 C         140.4804  140.2149  162.0552 C.ar    1  UNL1        0.0080
@<TRIPOS>BOND
     1     1     2    1
     2     2     3    1
     3     3     4    1
     4     4     5    1
     5     5    14    1
     6    14    15    1
     7    15    16    1
     8    16    17    1
     9    17    18   ar
    10    18    19   ar
    11    19    20   ar
    12    20    21   ar
    13    21    22    1
    14    21    23   ar
    15     5     8    1
    16     8     9   ar
    17     9    10   ar
    18    10    11   ar
    19    11    12   ar
    20    12    13   ar
    21     5     6    1
    22     6     7    1
    23     7     2    1
    24    23    17   ar
    25    13     8   ar
@<TRIPOS>MOLECULE
*****
 23 25 0 0 0
SMALL
GASTEIGER

@<TRIPOS>ATOM
      1 C         139.6722  145.6384  161.9546 C.3     1  UNL1        0.0896
      2 N         139.6714  144.4958  162.9264 N.3     1  UNL1       -0.2715
      3 C         139.5266  143.0882  162.4289 C.3     1  UNL1        0.0725
      4 C         139.5258  141.9455  163.4007 C.3     1  UNL1        0.0238
      5 C         139.6698  142.2105  164.8700 C.3     1  UNL1        0.0489
      6 C         139.8147  143.6181  165.3676 C.3     1  UNL1        0.0238
      7 C         139.8155  144.7608  164.3958 C.3     1  UNL1        0.0725
      8 C         139.5620  140.7144  164.8845 C.ar    1  UNL1       -0.0204
      9 C         138.5273  140.0453  165.7399 C.ar    1  UNL1       -0.0042
     10 C         138.4194  138.5493  165.7544 C.ar    1  UNL1       -0.0003
     11 C         139.3463  137.7224  164.9136 C.ar    1  UNL1       -0.0000
     12 C         140.3810  138.3914  164.0582 C.ar    1  UNL1       -0.0003
     13 C         140.4889  139.8875  164.0437 C.ar    1  UNL1       -0.0042
     14 C         139.7764  141.9559  166.3445 C.3     1  UNL1        0.1466
     15 O         140.8174  142.6693  167.1554 O.3     1  UNL1       -0.3486
     16 C         142.0096  141.9195  167.6718 C.3     1  UNL1        0.1702
     17 C         142.7117  140.9288  166.7912 C.ar    1  UNL1        0.0269
     18 C         142.6561  139.4654  167.1158 C.ar    1  UNL1        0.0970
     19 N         143.3582  138.4747  166.2351 N.ar    1  UNL1       -0.2421
     20 C         144.1158  138.9474  165.0299 C.ar    1  UNL1        0.1055
     21 C         144.1714  140.4108  164.7053 C.ar    1  UNL1        0.0535
     22 BR        144.9290  140.8834  163.5001 Br      1  UNL1       -0.0474
     23 C         143.4693  141.4015  165.5859 C.ar    1  UNL1        0.0080
@<TRIPOS>BOND
     1     1     2    1
     2     2     3    1
     3     3     4    1
     4     4     5    1
     5     5    14    1
     6    14    15    1
     7    15    16    1
     8    16    17    1
     9    17    18   ar
    10    18    19   ar
    11    19    20   ar
    12    20    21   ar
    13    21    22    1
    14    21    23   ar
    15     5     8    1
    16     8     9   ar
    17     9    10   ar
    18    10    11   ar
    19    11    12   ar
    20    12    13   ar
    21     5     6    1
    22     6     7    1
    23     7     2    1
    24    23    17   ar
    25    13     8   ar
@<TRIPOS>MOLECULE
*****
 23 25 0 0 0
SMALL
GASTEIGER

@<TRIPOS>ATOM
      1 C         141.0205  141.7172  170.7247 C.3     1  UNL1        0.0896
      2 N         141.4299  141.4033  169.3162 N.3     1  UNL1       -0.2715
      3 C         142.6068  142.1029  168.7037 C.3     1  UNL1        0.0725
      4 C         143.0162  141.7890  167.2952 C.3     1  UNL1        0.0238
      5 C         142.2486  140.7755  166.4992 C.3     1  UNL1        0.0489
      6 C         141.0717  140.0758  167.1118 C.3     1  UNL1        0.0238
      7 C         140.6623  140.3897  168.5203 C.3     1  UNL1        0.0725
      8 C         143.2839  141.1708  165.4883 C.ar    1  UNL1       -0.0204
      9 C         143.4368  142.6102  165.0950 C.ar    1  UNL1       -0.0042
     10 C         144.4720  143.0056  164.0841 C.ar    1  UNL1       -0.0003
     11 C         145.3543  141.9615  163.4664 C.ar    1  UNL1       -0.0000
     12 C         145.2014  140.5221  163.8597 C.ar    1  UNL1       -0.0003
     13 C         144.1661  140.1267  164.8707 C.ar    1  UNL1       -0.0042
     14 C         141.8406  139.8992  165.3522 C.3     1  UNL1        0.1466
     15 O         140.3922  139.7732  164.9829 O.3     1  UNL1       -0.3486
     16 C         139.9272  140.1886  163.6187 C.3     1  UNL1        0.1702
     17 C         139.2019  141.4891  163.4373 C.ar    1  UNL1        0.0269
     18 C         138.4225  141.7444  162.1813 C.ar    1  UNL1        0.0970
     19 N         137.6974  143.0448  162.0001 N.ar    1  UNL1       -0.2421
     20 C         137.7514  144.0899  163.0746 C.ar    1  UNL1        0.1055
     21 C         138.5308  143.8346  164.3306 C.ar    1  UNL1        0.0535
     22 BR        138.5849  144.8798  165.4052 Br      1  UNL1       -0.0474
     23 C         139.2560  142.5342  164.5120 C.ar    1  UNL1        0.0080
@<TRIPOS>BOND
     1     1     2    1
     2     2     3    1
     3     3     4    1
     4     4     5    1
     5     5    14    1
     6    14    15    1
     7    15    16    1
     8    16    17    1
     9    17    18   ar
    10    18    19   ar
    11    19    20   ar
    12    20    21   ar
    13    21    22    1
    14    21    23   ar
    15     5     8    1
    16     8     9   ar
    17     9    10   ar
    18    10    11   ar
    19    11    12   ar
    20    12    13   ar
    21     5     6    1
    22     6     7    1
    23     7     2    1
    24    23    17   ar
    25    13     8   ar
