@<TRIPOS>MOLECULE
*****
 33 36 0 0 0
SMALL
GASTEIGER

@<TRIPOS>ATOM
      1 N         143.7128  142.6833  160.4312 N.pl3   1  UNL1       -0.2573
      2 C         144.2691  143.1468  161.7449 C.2     1  UNL1        0.0863
      3 C         143.4936  142.9220  163.0090 C.2     1  UNL1        0.0863
      4 N         142.1617  142.2336  162.9594 N.pl3   1  UNL1       -0.2573
      5 C         141.6054  141.7702  161.6457 C.2     1  UNL1        0.0863
      6 C         142.3810  141.9950  160.3817 C.2     1  UNL1        0.0863
      7 C         144.8420  141.7459  158.2873 C.2     1  UNL1        0.2283
      8 O         144.4201  140.3587  158.6717 O.2     1  UNL1       -0.2836
      9 C         144.4883  142.9082  159.1671 C.2     1  UNL1        0.1138
     10 C         145.7692  141.8838  154.4310 C.ar    1  UNL1        0.1514
     11 C         144.9938  141.6589  155.6952 C.ar    1  UNL1        0.0600
     12 C         145.6175  141.9708  157.0232 C.ar    1  UNL1        0.1245
     13 N         147.0167  142.5076  157.0871 N.ar    1  UNL1       -0.2397
     14 C         147.7921  142.7325  155.8230 C.ar    1  UNL1        0.1122
     15 C         147.1684  142.4206  154.4949 C.ar    1  UNL1        0.1214
     16 C         144.8762  140.1477  152.7169 C.3     1  UNL1        0.2525
     17 O         145.1455  141.5719  153.1029 O.3     1  UNL1       -0.4706
     18 C         147.9440  142.6455  153.2308 C.1     1  UNL1        0.1051
     19 N         148.7196  142.8704  151.9668 N.1     1  UNL1       -0.1907
     20 C         141.3862  142.0088  164.2235 C.2     1  UNL1        0.1122
     21 C         141.7864  140.9106  165.1636 C.2     1  UNL1        0.2104
     22 O         142.9621  140.0373  164.8396 O.2     1  UNL1       -0.2852
     23 C         141.0108  140.6858  166.4278 C.ar    1  UNL1        0.0361
     24 C         139.7149  139.9316  166.3886 C.ar    1  UNL1        0.0031
     25 C         138.9394  139.7068  167.6527 C.ar    1  UNL1        0.0063
     26 C         139.4599  140.2361  168.9561 C.ar    1  UNL1        0.0749
     27 C         140.7559  140.9903  168.9954 C.ar    1  UNL1        0.0237
     28 C         141.5314  141.2152  167.7313 C.ar    1  UNL1       -0.0190
     29 C         142.8275  141.9694  167.7705 C.3     1  UNL1        0.0309
     30 C         141.0164  141.3906  170.4173 C.3     1  UNL1        0.2353
     31 O         139.8814  140.8838  171.2568 O.3     1  UNL1       -0.4404
     32 C         138.9194  140.1703  170.3538 C.2     1  UNL1        0.3413
     33 O         137.6413  139.5073  170.7745 O.2     1  UNL1       -0.2449
@<TRIPOS>BOND
     1    16    17    1
     2    17    10    1
     3    10    11   ar
     4    11    12   ar
     5    12     7    1
     6     7     8    1
     7     7     9    2
     8     9     1    1
     9     1     2    1
    10     2     3    2
    11     3     4    1
    12     4    20    1
    13    20    21    2
    14    21    22    1
    15    21    23    1
    16    23    24   ar
    17    24    25   ar
    18    25    26   ar
    19    26    27   ar
    20    27    28   ar
    21    28    29    1
    22    27    30    1
    23    30    31    1
    24    31    32    1
    25    32    33    2
    26     4     5    1
    27     5     6    2
    28    12    13   ar
    29    13    14   ar
    30    14    15   ar
    31    15    18    1
    32    18    19    3
    33    15    10   ar
    34     6     1    1
    35    28    23   ar
    36    32    26    1
@<TRIPOS>MOLECULE
*****
 33 36 0 0 0
SMALL
GASTEIGER

@<TRIPOS>ATOM
      1 N         141.3225  143.1055  162.4959 N.pl3   1  UNL1       -0.2573
      2 C         141.9329  142.6618  161.1995 C.2     1  UNL1        0.0863
      3 C         141.8594  143.5501  159.9931 C.2     1  UNL1        0.0863
      4 N         141.1754  144.8821  160.0831 N.pl3   1  UNL1       -0.2573
      5 C         140.5651  145.3258  161.3795 C.2     1  UNL1        0.0863
      6 C         140.6386  144.4375  162.5858 C.2     1  UNL1        0.0863
      7 C         142.6618  142.1441  164.5040 C.2     1  UNL1        0.2283
      8 O         143.8540  142.9593  164.0991 O.2     1  UNL1       -0.2836
      9 C         141.3960  142.2172  163.7023 C.2     1  UNL1        0.1138
     10 C         142.4939  140.9202  168.2754 C.ar    1  UNL1        0.1514
     11 C         142.4205  141.8084  167.0689 C.ar    1  UNL1        0.0600
     12 C         142.7352  141.2557  165.7104 C.ar    1  UNL1        0.1245
     13 N         143.1232  139.8148  165.5583 N.ar    1  UNL1       -0.2397
     14 C         143.1965  138.9266  166.7648 C.ar    1  UNL1        0.1122
     15 C         142.8819  139.4793  168.1233 C.ar    1  UNL1        0.1214
     16 C         140.7536  141.7096  170.0355 C.3     1  UNL1        0.2525
     17 O         142.1793  141.4728  169.6339 O.3     1  UNL1       -0.4706
     18 C         142.9553  138.5909  169.3298 C.1     1  UNL1        0.1051
     19 N         143.0287  137.7026  170.5363 N.1     1  UNL1       -0.1907
     20 C         141.1019  145.7704  158.8766 C.2     1  UNL1        0.1122
     21 C         140.2222  145.3949  157.7213 C.2     1  UNL1        0.2104
     22 O         139.4159  144.1310  157.7723 O.2     1  UNL1       -0.2852
     23 C         140.1486  146.2832  156.5147 C.ar    1  UNL1        0.0361
     24 C         139.2213  147.4621  156.5068 C.ar    1  UNL1        0.0031
     25 C         139.1478  148.3504  155.3003 C.ar    1  UNL1        0.0063
     26 C         140.0016  148.0597  154.1018 C.ar    1  UNL1        0.0749
     27 C         140.9290  146.8808  154.1098 C.ar    1  UNL1        0.0237
     28 C         141.0026  145.9925  155.3162 C.ar    1  UNL1       -0.0190
     29 C         141.9299  144.8135  155.3242 C.3     1  UNL1        0.0309
     30 C         141.6441  146.8446  152.7917 C.3     1  UNL1        0.2353
     31 O         141.1586  148.0012  151.9691 O.3     1  UNL1       -0.4404
     32 C         140.1436  148.7522  152.7788 C.2     1  UNL1        0.3413
     33 O         139.4008  149.9801  152.3422 O.2     1  UNL1       -0.2449
@<TRIPOS>BOND
     1    16    17    1
     2    17    10    1
     3    10    11   ar
     4    11    12   ar
     5    12     7    1
     6     7     8    1
     7     7     9    2
     8     9     1    1
     9     1     2    1
    10     2     3    2
    11     3     4    1
    12     4    20    1
    13    20    21    2
    14    21    22    1
    15    21    23    1
    16    23    24   ar
    17    24    25   ar
    18    25    26   ar
    19    26    27   ar
    20    27    28   ar
    21    28    29    1
    22    27    30    1
    23    30    31    1
    24    31    32    1
    25    32    33    2
    26     4     5    1
    27     5     6    2
    28    12    13   ar
    29    13    14   ar
    30    14    15   ar
    31    15    18    1
    32    18    19    3
    33    15    10   ar
    34     6     1    1
    35    28    23   ar
    36    32    26    1
@<TRIPOS>MOLECULE
*****
 33 36 0 0 0
SMALL
GASTEIGER

@<TRIPOS>ATOM
      1 N         142.0321  141.4071  162.3790 N.pl3   1  UNL1       -0.2573
      2 C         141.3902  142.2942  161.3538 C.2     1  UNL1        0.0863
      3 C         142.1663  142.7278  160.1457 C.2     1  UNL1        0.0863
      4 N         143.5844  142.2742  159.9628 N.pl3   1  UNL1       -0.2573
      5 C         144.2263  141.3871  160.9880 C.2     1  UNL1        0.0863
      6 C         143.4501  140.9536  162.1961 C.2     1  UNL1        0.0863
      7 C         141.5157  141.6179  164.9166 C.2     1  UNL1        0.2283
      8 O         142.5518  142.6957  165.0379 O.2     1  UNL1       -0.2836
      9 C         141.2559  140.9736  163.5871 C.2     1  UNL1        0.1138
     10 C         140.0778  141.5219  168.6143 C.ar    1  UNL1        0.1514
     11 C         140.8539  141.9555  167.4061 C.ar    1  UNL1        0.0600
     12 C         140.7396  141.1842  166.1247 C.ar    1  UNL1        0.1245
     13 N         139.8490  139.9795  166.0513 N.ar    1  UNL1       -0.2397
     14 C         139.0728  139.5459  167.2595 C.ar    1  UNL1        0.1122
     15 C         139.1872  140.3171  168.5409 C.ar    1  UNL1        0.1214
     16 C         140.5592  143.7472  169.8658 C.3     1  UNL1        0.2525
     17 O         140.1921  142.2931  169.8958 O.3     1  UNL1       -0.4706
     18 C         138.4110  139.8835  169.7490 C.1     1  UNL1        0.1051
     19 N         137.6347  139.4499  170.9571 N.1     1  UNL1       -0.1907
     20 C         144.3606  142.7077  158.7547 C.2     1  UNL1        0.1122
     21 C         144.8300  141.6885  157.7594 C.2     1  UNL1        0.2104
     22 O         144.5234  140.2356  157.9722 O.2     1  UNL1       -0.2852
     23 C         145.6063  142.1220  156.5511 C.ar    1  UNL1        0.0361
     24 C         147.1053  142.0737  156.5657 C.ar    1  UNL1        0.0031
     25 C         147.8815  142.5073  155.3576 C.ar    1  UNL1        0.0063
     26 C         147.1585  142.9891  154.1349 C.ar    1  UNL1        0.0749
     27 C         145.6593  143.0374  154.1202 C.ar    1  UNL1        0.0237
     28 C         144.8832  142.6039  155.3284 C.ar    1  UNL1       -0.0190
     29 C         143.3840  142.6521  155.3138 C.3     1  UNL1        0.0309
     30 C         145.2252  143.5549  152.7810 C.3     1  UNL1        0.2353
     31 O         146.4561  143.8265  151.9679 O.3     1  UNL1       -0.4404
     32 C         147.6510  143.4768  152.8046 C.2     1  UNL1        0.3413
     33 O         149.0862  143.5942  152.3847 O.2     1  UNL1       -0.2449
@<TRIPOS>BOND
     1    16    17    1
     2    17    10    1
     3    10    11   ar
     4    11    12   ar
     5    12     7    1
     6     7     8    1
     7     7     9    2
     8     9     1    1
     9     1     2    1
    10     2     3    2
    11     3     4    1
    12     4    20    1
    13    20    21    2
    14    21    22    1
    15    21    23    1
    16    23    24   ar
    17    24    25   ar
    18    25    26   ar
    19    26    27   ar
    20    27    28   ar
    21    28    29    1
    22    27    30    1
    23    30    31    1
    24    31    32    1
    25    32    33    2
    26     4     5    1
    27     5     6    2
    28    12    13   ar
    29    13    14   ar
    30    14    15   ar
    31    15    18    1
    32    18    19    3
    33    15    10   ar
    34     6     1    1
    35    28    23   ar
    36    32    26    1
@<TRIPOS>MOLECULE
*****
 33 36 0 0 0
SMALL
GASTEIGER

@<TRIPOS>ATOM
      1 N         141.0834  142.8851  155.0705 N.pl3   1  UNL1       -0.2573
      2 C         141.9745  142.4121  156.1806 C.2     1  UNL1        0.0863
      3 C         142.0599  140.9495  156.5022 C.2     1  UNL1        0.0863
      4 N         141.2543  139.9599  155.7137 N.pl3   1  UNL1       -0.2573
      5 C         140.3632  140.4329  154.6036 C.2     1  UNL1        0.0863
      6 C         140.2778  141.8955  154.2820 C.2     1  UNL1        0.0863
      7 C         139.8619  145.1683  155.2838 C.2     1  UNL1        0.2283
      8 O         138.8113  144.5261  156.1405 O.2     1  UNL1       -0.2836
      9 C         140.9979  144.3477  154.7488 C.2     1  UNL1        0.1138
     10 C         138.9021  149.0114  155.5265 C.ar    1  UNL1        0.1514
     11 C         138.9875  147.5488  155.8481 C.ar    1  UNL1        0.0600
     12 C         139.7765  146.6309  154.9621 C.ar    1  UNL1        0.1245
     13 N         140.4801  147.1756  153.7546 N.ar    1  UNL1       -0.2397
     14 C         140.3946  148.6382  153.4329 C.ar    1  UNL1        0.1122
     15 C         139.6056  149.5561  154.3189 C.ar    1  UNL1        0.1214
     16 C         138.0645  149.6855  157.8917 C.3     1  UNL1        0.2525
     17 O         138.1130  149.9294  156.4124 O.3     1  UNL1       -0.4706
     18 C         139.5202  151.0187  153.9972 C.1     1  UNL1        0.1051
     19 N         139.4347  152.4813  153.6755 N.1     1  UNL1       -0.1907
     20 C         141.3398  138.4973  156.0353 C.2     1  UNL1        0.1122
     21 C         142.3603  137.6373  155.3506 C.2     1  UNL1        0.2104
     22 O         143.2953  138.2398  154.3443 O.2     1  UNL1       -0.2852
     23 C         142.4458  136.1746  155.6723 C.ar    1  UNL1        0.0361
     24 C         143.2494  135.7116  156.8511 C.ar    1  UNL1        0.0031
     25 C         143.3349  134.2490  157.1727 C.ar    1  UNL1        0.0063
     26 C         142.6167  133.2494  156.3155 C.ar    1  UNL1        0.0749
     27 C         141.8130  133.7123  155.1366 C.ar    1  UNL1        0.0237
     28 C         141.7275  135.1749  154.8149 C.ar    1  UNL1       -0.0190
     29 C         140.9238  135.6380  153.6360 C.3     1  UNL1        0.0309
     30 C         141.2172  132.5034  154.4781 C.3     1  UNL1        0.2353
     31 O         141.6527  131.2933  155.2501 O.3     1  UNL1       -0.4404
     32 C         142.5176  131.7543  156.3856 C.2     1  UNL1        0.3413
     33 O         143.1691  130.8746  157.4112 O.2     1  UNL1       -0.2449
@<TRIPOS>BOND
     1    16    17    1
     2    17    10    1
     3    10    11   ar
     4    11    12   ar
     5    12     7    1
     6     7     8    1
     7     7     9    2
     8     9     1    1
     9     1     2    1
    10     2     3    2
    11     3     4    1
    12     4    20    1
    13    20    21    2
    14    21    22    1
    15    21    23    1
    16    23    24   ar
    17    24    25   ar
    18    25    26   ar
    19    26    27   ar
    20    27    28   ar
    21    28    29    1
    22    27    30    1
    23    30    31    1
    24    31    32    1
    25    32    33    2
    26     4     5    1
    27     5     6    2
    28    12    13   ar
    29    13    14   ar
    30    14    15   ar
    31    15    18    1
    32    18    19    3
    33    15    10   ar
    34     6     1    1
    35    28    23   ar
    36    32    26    1
@<TRIPOS>MOLECULE
*****
 33 36 0 0 0
SMALL
GASTEIGER

@<TRIPOS>ATOM
      1 N         142.2698  139.8440  156.9628 N.pl3   1  UNL1       -0.2573
      2 C         141.1575  140.4685  157.7520 C.2     1  UNL1        0.0863
      3 C         140.8474  141.9267  157.5865 C.2     1  UNL1        0.0863
      4 N         141.6497  142.7604  156.6318 N.pl3   1  UNL1       -0.2573
      5 C         142.7620  142.1360  155.8427 C.2     1  UNL1        0.0863
      6 C         143.0720  140.6777  156.0082 C.2     1  UNL1        0.0863
      7 C         141.9678  137.3787  156.2002 C.2     1  UNL1        0.2283
      8 O         141.0456  137.8300  155.1067 O.2     1  UNL1       -0.2836
      9 C         142.5799  138.3858  157.1283 C.2     1  UNL1        0.1138
     10 C         141.8524  133.4417  155.7144 C.ar    1  UNL1        0.1514
     11 C         141.5423  134.8999  155.5489 C.ar    1  UNL1        0.0600
     12 C         142.2779  135.9205  156.3658 C.ar    1  UNL1        0.1245
     13 N         143.3236  135.4829  157.3481 N.ar    1  UNL1       -0.2397
     14 C         143.6337  134.0247  157.5136 C.ar    1  UNL1        0.1122
     15 C         142.8981  133.0041  156.6967 C.ar    1  UNL1        0.1214
     16 C         141.5360  132.1486  153.4833 C.3     1  UNL1        0.2525
     17 O         141.1169  132.4210  154.8975 O.3     1  UNL1       -0.4706
     18 C         143.2083  131.5458  156.8623 C.1     1  UNL1        0.1051
     19 N         143.5185  130.0876  157.0277 N.1     1  UNL1       -0.1907
     20 C         141.3396  144.2187  156.4664 C.2     1  UNL1        0.1122
     21 C         140.2211  144.6500  155.5647 C.2     1  UNL1        0.2104
     22 O         139.4127  143.6230  154.8286 O.2     1  UNL1       -0.2852
     23 C         139.9110  146.1083  155.3993 C.ar    1  UNL1        0.0361
     24 C         139.1611  146.8419  156.4713 C.ar    1  UNL1        0.0031
     25 C         138.8510  148.3001  156.3058 C.ar    1  UNL1        0.0063
     26 C         139.2908  149.0247  155.0683 C.ar    1  UNL1        0.0749
     27 C         140.0407  148.2911  153.9962 C.ar    1  UNL1        0.0237
     28 C         140.3508  146.8328  154.1616 C.ar    1  UNL1       -0.0190
     29 C         141.1008  146.0991  153.0896 C.3     1  UNL1        0.0309
     30 C         140.3437  149.2629  152.8945 C.3     1  UNL1        0.2353
     31 O         139.7810  150.5972  153.2857 O.3     1  UNL1       -0.4404
     32 C         139.1303  150.4500  154.6291 C.2     1  UNL1        0.3413
     33 O         138.4402  151.5372  155.3984 O.2     1  UNL1       -0.2449
@<TRIPOS>BOND
     1    16    17    1
     2    17    10    1
     3    10    11   ar
     4    11    12   ar
     5    12     7    1
     6     7     8    1
     7     7     9    2
     8     9     1    1
     9     1     2    1
    10     2     3    2
    11     3     4    1
    12     4    20    1
    13    20    21    2
    14    21    22    1
    15    21    23    1
    16    23    24   ar
    17    24    25   ar
    18    25    26   ar
    19    26    27   ar
    20    27    28   ar
    21    28    29    1
    22    27    30    1
    23    30    31    1
    24    31    32    1
    25    32    33    2
    26     4     5    1
    27     5     6    2
    28    12    13   ar
    29    13    14   ar
    30    14    15   ar
    31    15    18    1
    32    18    19    3
    33    15    10   ar
    34     6     1    1
    35    28    23   ar
    36    32    26    1
@<TRIPOS>MOLECULE
*****
 33 36 0 0 0
SMALL
GASTEIGER

@<TRIPOS>ATOM
      1 N         142.4639  138.1618  156.2395 N.pl3   1  UNL1       -0.2573
      2 C         141.5580  138.9057  157.1756 C.2     1  UNL1        0.0863
      3 C         141.0429  140.2634  156.7999 C.2     1  UNL1        0.0863
      4 N         141.4336  140.8773  155.4882 N.pl3   1  UNL1       -0.2573
      5 C         142.3395  140.1334  154.5521 C.2     1  UNL1        0.0863
      6 C         142.8546  138.7757  154.9279 C.2     1  UNL1        0.0863
      7 C         142.2786  135.5730  156.1213 C.2     1  UNL1        0.2283
      8 O         141.0629  135.6997  155.2518 O.2     1  UNL1       -0.2836
      9 C         142.9790  136.8041  156.6152 C.2     1  UNL1        0.1138
     10 C         142.6475  131.6269  156.3266 C.ar    1  UNL1        0.1514
     11 C         142.1323  132.9847  155.9510 C.ar    1  UNL1        0.0600
     12 C         142.7938  134.2153  156.4970 C.ar    1  UNL1        0.1245
     13 N         143.9704  134.0881  157.4186 N.ar    1  UNL1       -0.2397
     14 C         144.4855  132.7304  157.7943 C.ar    1  UNL1        0.1122
     15 C         143.8241  131.4998  157.2483 C.ar    1  UNL1        0.1214
     16 C         142.2128  129.9934  154.3537 C.3     1  UNL1        0.2525
     17 O         141.9861  130.3962  155.7807 O.3     1  UNL1       -0.4706
     18 C         144.3393  130.1420  157.6240 C.1     1  UNL1        0.1051
     19 N         144.8546  128.7843  157.9996 N.1     1  UNL1       -0.1907
     20 C         140.9185  142.2350  155.1125 C.2     1  UNL1        0.1122
     21 C         141.6983  143.4618  155.4825 C.2     1  UNL1        0.2104
     22 O         142.9933  143.3308  156.2281 O.2     1  UNL1       -0.2852
     23 C         141.1831  144.8196  155.1069 C.ar    1  UNL1        0.0361
     24 C         141.5317  145.4115  153.7735 C.ar    1  UNL1        0.0031
     25 C         141.0165  146.7693  153.3978 C.ar    1  UNL1        0.0063
     26 C         140.1529  147.5351  154.3556 C.ar    1  UNL1        0.0749
     27 C         139.8043  146.9432  155.6891 C.ar    1  UNL1        0.0237
     28 C         140.3194  145.5855  156.0648 C.ar    1  UNL1       -0.0190
     29 C         139.9709  144.9935  157.3983 C.3     1  UNL1        0.0309
     30 C         138.9395  147.9264  156.4209 C.3     1  UNL1        0.2353
     31 O         138.7536  149.1259  155.5397 O.3     1  UNL1       -0.4404
     32 C         139.5035  148.8841  154.2633 C.2     1  UNL1        0.3413
     33 O         139.5889  149.8259  153.0990 O.2     1  UNL1       -0.2449
@<TRIPOS>BOND
     1    16    17    1
     2    17    10    1
     3    10    11   ar
     4    11    12   ar
     5    12     7    1
     6     7     8    1
     7     7     9    2
     8     9     1    1
     9     1     2    1
    10     2     3    2
    11     3     4    1
    12     4    20    1
    13    20    21    2
    14    21    22    1
    15    21    23    1
    16    23    24   ar
    17    24    25   ar
    18    25    26   ar
    19    26    27   ar
    20    27    28   ar
    21    28    29    1
    22    27    30    1
    23    30    31    1
    24    31    32    1
    25    32    33    2
    26     4     5    1
    27     5     6    2
    28    12    13   ar
    29    13    14   ar
    30    14    15   ar
    31    15    18    1
    32    18    19    3
    33    15    10   ar
    34     6     1    1
    35    28    23   ar
    36    32    26    1
@<TRIPOS>MOLECULE
*****
 33 36 0 0 0
SMALL
GASTEIGER

@<TRIPOS>ATOM
      1 N         142.2044  135.6305  155.6528 N.pl3   1  UNL1       -0.2573
      2 C         140.7462  135.9733  155.5734 C.2     1  UNL1        0.0863
      3 C         140.2156  137.1685  156.3082 C.2     1  UNL1        0.0863
      4 N         141.1433  138.0209  157.1224 N.pl3   1  UNL1       -0.2573
      5 C         142.6014  137.6781  157.2019 C.2     1  UNL1        0.0863
      6 C         143.1319  136.4829  156.4671 C.2     1  UNL1        0.0863
      7 C         142.9281  133.1352  155.6409 C.2     1  UNL1        0.2283
      8 O         142.5907  133.0304  157.0987 O.2     1  UNL1       -0.2836
      9 C         142.7350  134.4353  154.9180 C.2     1  UNL1        0.1138
     10 C         144.7946  129.7118  154.9022 C.ar    1  UNL1        0.1514
     11 C         144.2640  130.9070  155.6370 C.ar    1  UNL1        0.0600
     12 C         143.4587  131.9401  154.9061 C.ar    1  UNL1        0.1245
     13 N         143.1841  131.7780  153.4404 N.ar    1  UNL1       -0.2397
     14 C         143.7147  130.5828  152.7056 C.ar    1  UNL1        0.1122
     15 C         144.5200  129.5497  153.4365 C.ar    1  UNL1        0.1214
     16 C         144.9273  127.7490  156.5992 C.3     1  UNL1        0.2525
     17 O         145.5999  128.6786  155.6330 O.3     1  UNL1       -0.4706
     18 C         145.0506  128.3545  152.7016 C.1     1  UNL1        0.1051
     19 N         145.5812  127.1593  151.9668 N.1     1  UNL1       -0.1907
     20 C         140.6127  139.2161  157.8572 C.2     1  UNL1        0.1122
     21 C         140.5831  139.2222  159.3569 C.2     1  UNL1        0.2104
     22 O         141.0841  138.0331  160.1218 O.2     1  UNL1       -0.2852
     23 C         140.0525  140.4175  160.0918 C.ar    1  UNL1        0.0361
     24 C         140.5776  141.7864  159.7753 C.ar    1  UNL1        0.0031
     25 C         140.0470  142.9816  160.5101 C.ar    1  UNL1        0.0063
     26 C         138.9913  142.8078  161.5614 C.ar    1  UNL1        0.0749
     27 C         138.4661  141.4389  161.8779 C.ar    1  UNL1        0.0237
     28 C         138.9967  140.2437  161.1431 C.ar    1  UNL1       -0.0190
     29 C         138.4716  138.8746  161.4595 C.3     1  UNL1        0.0309
     30 C         137.4328  141.5767  162.9564 C.3     1  UNL1        0.2353
     31 O         137.3194  143.0308  163.3065 O.3     1  UNL1       -0.4404
     32 C         138.2825  143.7917  162.4444 C.2     1  UNL1        0.3413
     33 O         138.4989  145.2759  162.4621 O.2     1  UNL1       -0.2449
@<TRIPOS>BOND
     1    16    17    1
     2    17    10    1
     3    10    11   ar
     4    11    12   ar
     5    12     7    1
     6     7     8    1
     7     7     9    2
     8     9     1    1
     9     1     2    1
    10     2     3    2
    11     3     4    1
    12     4    20    1
    13    20    21    2
    14    21    22    1
    15    21    23    1
    16    23    24   ar
    17    24    25   ar
    18    25    26   ar
    19    26    27   ar
    20    27    28   ar
    21    28    29    1
    22    27    30    1
    23    30    31    1
    24    31    32    1
    25    32    33    2
    26     4     5    1
    27     5     6    2
    28    12    13   ar
    29    13    14   ar
    30    14    15   ar
    31    15    18    1
    32    18    19    3
    33    15    10   ar
    34     6     1    1
    35    28    23   ar
    36    32    26    1
@<TRIPOS>MOLECULE
*****
 33 36 0 0 0
SMALL
GASTEIGER

@<TRIPOS>ATOM
      1 N         142.4793  140.9212  155.9005 N.pl3   1  UNL1       -0.2573
      2 C         143.1897  141.6097  154.7730 C.2     1  UNL1        0.0863
      3 C         142.9431  143.0655  154.5088 C.2     1  UNL1        0.0863
      4 N         141.9860  143.8328  155.3723 N.pl3   1  UNL1       -0.2573
      5 C         141.2756  143.1443  156.4998 C.2     1  UNL1        0.0863
      6 C         141.5223  141.6885  156.7639 C.2     1  UNL1        0.0863
      7 C         141.8491  138.4284  155.5275 C.2     1  UNL1        0.2283
      8 O         140.7257  138.8473  154.6261 O.2     1  UNL1       -0.2836
      9 C         142.7258  139.4654  156.1647 C.2     1  UNL1        0.1138
     10 C         141.7606  134.4797  155.1417 C.ar    1  UNL1        0.1514
     11 C         141.5139  135.9355  154.8776 C.ar    1  UNL1        0.0600
     12 C         142.0957  136.9727  155.7917 C.ar    1  UNL1        0.1245
     13 N         142.9242  136.5541  156.9701 N.ar    1  UNL1       -0.2397
     14 C         143.1708  135.0983  157.2342 C.ar    1  UNL1        0.1122
     15 C         142.5890  134.0611  156.3201 C.ar    1  UNL1        0.1214
     16 C         141.8333  133.1525  152.9094 C.3     1  UNL1        0.2525
     17 O         141.1788  133.4424  154.2276 O.3     1  UNL1       -0.4706
     18 C         142.8356  132.6052  156.5843 C.1     1  UNL1        0.1051
     19 N         143.0824  131.1494  156.8486 N.1     1  UNL1       -0.1907
     20 C         141.7394  145.2886  155.1081 C.2     1  UNL1        0.1122
     21 C         140.4885  145.7214  154.4025 C.2     1  UNL1        0.2104
     22 O         139.4842  144.6985  153.9611 O.2     1  UNL1       -0.2852
     23 C         140.2419  147.1773  154.1383 C.ar    1  UNL1        0.0361
     24 C         140.7588  147.8093  152.8801 C.ar    1  UNL1        0.0031
     25 C         140.5122  149.2651  152.6158 C.ar    1  UNL1        0.0063
     26 C         139.7487  150.0889  153.6100 C.ar    1  UNL1        0.0749
     27 C         139.2317  149.4569  154.8683 C.ar    1  UNL1        0.0237
     28 C         139.4783  148.0012  155.1325 C.ar    1  UNL1       -0.0190
     29 C         138.9614  147.3691  156.3909 C.3     1  UNL1        0.0309
     30 C         138.5173  150.5134  155.6580 C.3     1  UNL1        0.2353
     31 O         138.5927  151.7982  154.8877 O.3     1  UNL1       -0.4404
     32 C         139.3537  151.5359  153.6220 C.2     1  UNL1        0.3413
     33 O         139.6651  152.5437  152.5555 O.2     1  UNL1       -0.2449
@<TRIPOS>BOND
     1    16    17    1
     2    17    10    1
     3    10    11   ar
     4    11    12   ar
     5    12     7    1
     6     7     8    1
     7     7     9    2
     8     9     1    1
     9     1     2    1
    10     2     3    2
    11     3     4    1
    12     4    20    1
    13    20    21    2
    14    21    22    1
    15    21    23    1
    16    23    24   ar
    17    24    25   ar
    18    25    26   ar
    19    26    27   ar
    20    27    28   ar
    21    28    29    1
    22    27    30    1
    23    30    31    1
    24    31    32    1
    25    32    33    2
    26     4     5    1
    27     5     6    2
    28    12    13   ar
    29    13    14   ar
    30    14    15   ar
    31    15    18    1
    32    18    19    3
    33    15    10   ar
    34     6     1    1
    35    28    23   ar
    36    32    26    1
@<TRIPOS>MOLECULE
*****
 33 36 0 0 0
SMALL
GASTEIGER

@<TRIPOS>ATOM
      1 N         141.8687  138.8509  159.9834 N.pl3   1  UNL1       -0.2573
      2 C         143.1917  139.3796  160.4525 C.2     1  UNL1        0.0863
      3 C         143.2840  140.1241  161.7514 C.2     1  UNL1        0.0863
      4 N         142.0531  140.3398  162.5812 N.pl3   1  UNL1       -0.2573
      5 C         140.7301  139.8111  162.1121 C.2     1  UNL1        0.0863
      6 C         140.6379  139.0666  160.8132 C.2     1  UNL1        0.0863
      7 C         142.5963  136.8688  158.4693 C.2     1  UNL1        0.2283
      8 O         143.5084  136.3756  159.5533 O.2     1  UNL1       -0.2836
      9 C         141.7764  138.1064  158.6844 C.2     1  UNL1        0.1138
     10 C         141.5795  135.9284  154.7503 C.ar    1  UNL1        0.1514
     11 C         141.6719  136.6728  156.0493 C.ar    1  UNL1        0.0600
     12 C         142.5039  136.1244  157.1704 C.ar    1  UNL1        0.1245
     13 N         143.2436  134.8316  156.9925 N.ar    1  UNL1       -0.2397
     14 C         143.1512  134.0873  155.6935 C.ar    1  UNL1        0.1122
     15 C         142.3192  134.6357  154.5724 C.ar    1  UNL1        0.1214
     16 C         139.8619  137.6645  153.8638 C.3     1  UNL1        0.2525
     17 O         140.7474  136.4768  153.6291 O.3     1  UNL1       -0.4706
     18 C         142.2268  133.8912  153.2734 C.1     1  UNL1        0.1051
     19 N         142.1344  133.1468  151.9745 N.1     1  UNL1       -0.1907
     20 C         142.1454  141.0843  163.8801 C.2     1  UNL1        0.1122
     21 C         141.9837  140.3504  165.1783 C.2     1  UNL1        0.2104
     22 O         141.7297  138.8720  165.1776 O.2     1  UNL1       -0.2852
     23 C         142.0759  141.0949  166.4773 C.ar    1  UNL1        0.0361
     24 C         143.3442  141.8058  166.8459 C.ar    1  UNL1        0.0031
     25 C         143.4365  142.5503  168.1448 C.ar    1  UNL1        0.0063
     26 C         142.2604  142.5838  169.0752 C.ar    1  UNL1        0.0749
     27 C         140.9920  141.8728  168.7067 C.ar    1  UNL1        0.0237
     28 C         140.8998  141.1283  167.4077 C.ar    1  UNL1       -0.0190
     29 C         139.6314  140.4173  167.0391 C.3     1  UNL1        0.0309
     30 C         140.0049  142.0802  169.8169 C.3     1  UNL1        0.2353
     31 O         140.6633  142.9194  170.8716 O.3     1  UNL1       -0.4404
     32 C         142.0572  143.2306  170.4132 C.2     1  UNL1        0.3413
     33 O         143.0701  144.0456  171.1615 O.2     1  UNL1       -0.2449
@<TRIPOS>BOND
     1    16    17    1
     2    17    10    1
     3    10    11   ar
     4    11    12   ar
     5    12     7    1
     6     7     8    1
     7     7     9    2
     8     9     1    1
     9     1     2    1
    10     2     3    2
    11     3     4    1
    12     4    20    1
    13    20    21    2
    14    21    22    1
    15    21    23    1
    16    23    24   ar
    17    24    25   ar
    18    25    26   ar
    19    26    27   ar
    20    27    28   ar
    21    28    29    1
    22    27    30    1
    23    30    31    1
    24    31    32    1
    25    32    33    2
    26     4     5    1
    27     5     6    2
    28    12    13   ar
    29    13    14   ar
    30    14    15   ar
    31    15    18    1
    32    18    19    3
    33    15    10   ar
    34     6     1    1
    35    28    23   ar
    36    32    26    1
