@<TRIPOS>MOLECULE
*****
 25 28 0 0 0
SMALL
GASTEIGER

@<TRIPOS>ATOM
      1 O         141.4451  139.6351  165.0151 O.2     1  UNL1       -0.2520
      2 C         140.1837  139.3277  165.7664 C.2     1  UNL1        0.3111
      3 N         139.0425  138.4911  165.2684 N.am    1  UNL1       -0.2606
      4 C         137.9955  138.4493  166.3418 C.3     1  UNL1        0.1169
      5 C         138.4897  139.2600  167.5031 C.3     1  UNL1        0.1212
      6 N         139.8420  139.8028  167.1475 N.am    1  UNL1       -0.2413
      7 C         140.7017  140.6688  168.0198 C.ar    1  UNL1        0.0562
      8 C         142.0873  140.2250  168.3845 C.ar    1  UNL1        0.0159
      9 C         142.9469  141.0910  169.2568 C.ar    1  UNL1        0.0135
     10 C         142.4209  142.4008  169.7646 C.ar    1  UNL1        0.0683
     11 CL        143.2806  143.2668  170.6370 Cl      1  UNL1       -0.0814
     12 C         141.0353  142.8446  169.3999 C.ar    1  UNL1        0.0694
     13 CL        140.5092  144.1544  169.9076 Cl      1  UNL1       -0.0813
     14 C         140.1756  141.9786  168.5275 C.ar    1  UNL1        0.0272
     15 C         138.9624  137.8151  163.9317 C.3     1  UNL1        0.1123
     16 C         138.4444  138.5663  162.7412 C.3     1  UNL1        0.0944
     17 N         138.6292  140.0523  162.6535 N.3     1  UNL1       -0.2637
     18 C         137.6601  141.0912  163.1347 C.3     1  UNL1        0.0992
     19 C         138.2474  142.4413  162.8478 C.ar    1  UNL1       -0.0088
     20 C         137.7413  143.8304  163.1010 C.ar    1  UNL1       -0.0032
     21 C         138.5674  145.0151  162.6958 C.ar    1  UNL1       -0.0003
     22 C         139.8995  144.8106  162.0373 C.ar    1  UNL1       -0.0003
     23 C         140.4056  143.4215  161.7840 C.ar    1  UNL1       -0.0032
     24 C         139.5795  142.2368  162.1893 C.ar    1  UNL1       -0.0088
     25 C         139.8154  140.7604  162.0692 C.3     1  UNL1        0.0992
@<TRIPOS>BOND
     1     1     2    2
     2     2     3   am
     3     3    15    1
     4    15    16    1
     5    16    17    1
     6    17    18    1
     7    18    19    1
     8    19    20   ar
     9    20    21   ar
    10    21    22   ar
    11    22    23   ar
    12    23    24   ar
    13    24    25    1
    14     3     4    1
    15     4     5    1
    16     5     6    1
    17     6     7    1
    18     7     8   ar
    19     8     9   ar
    20     9    10   ar
    21    10    11    1
    22    10    12   ar
    23    12    13    1
    24    12    14   ar
    25     6     2   am
    26    14     7   ar
    27    25    17    1
    28    24    19   ar
@<TRIPOS>MOLECULE
*****
 25 28 0 0 0
SMALL
GASTEIGER

@<TRIPOS>ATOM
      1 O         138.8611  142.4103  165.4211 O.2     1  UNL1       -0.2520
      2 C         138.8776  141.0441  164.8018 C.2     1  UNL1        0.3111
      3 N         138.1962  140.6461  163.5262 N.am    1  UNL1       -0.2606
      4 C         138.4758  139.1921  163.2855 C.3     1  UNL1        0.1169
      5 C         139.3300  138.6916  164.4125 C.3     1  UNL1        0.1212
      6 N         139.5783  139.8362  165.3496 N.am    1  UNL1       -0.2413
      7 C         140.3855  139.7824  166.6127 C.ar    1  UNL1        0.0562
      8 C         141.8577  139.5018  166.5505 C.ar    1  UNL1        0.0159
      9 C         142.6649  139.4479  167.8136 C.ar    1  UNL1        0.0135
     10 C         141.9998  139.6746  169.1389 C.ar    1  UNL1        0.0683
     11 CL        142.8071  139.6207  170.4021 Cl      1  UNL1       -0.0814
     12 C         140.5277  139.9552  169.2011 C.ar    1  UNL1        0.0694
     13 CL        139.8626  140.1819  170.5264 Cl      1  UNL1       -0.0813
     14 C         139.7205  140.0091  167.9380 C.ar    1  UNL1        0.0272
     15 C         137.3788  141.5442  162.6458 C.3     1  UNL1        0.1123
     16 C         138.0587  142.5272  161.7395 C.3     1  UNL1        0.0944
     17 N         139.4480  142.9988  162.0519 N.3     1  UNL1       -0.2637
     18 C         140.7222  142.3452  161.6055 C.3     1  UNL1        0.0992
     19 C         141.8687  143.1491  162.1432 C.ar    1  UNL1       -0.0088
     20 C         143.3546  142.9822  162.0243 C.ar    1  UNL1       -0.0032
     21 C         144.2749  143.9658  162.6843 C.ar    1  UNL1       -0.0003
     22 C         143.7093  145.1163  163.4631 C.ar    1  UNL1       -0.0003
     23 C         142.2234  145.2832  163.5820 C.ar    1  UNL1       -0.0032
     24 C         141.3031  144.2996  162.9220 C.ar    1  UNL1       -0.0088
     25 C         139.8071  144.2066  162.8656 C.3     1  UNL1        0.0992
@<TRIPOS>BOND
     1     1     2    2
     2     2     3   am
     3     3    15    1
     4    15    16    1
     5    16    17    1
     6    17    18    1
     7    18    19    1
     8    19    20   ar
     9    20    21   ar
    10    21    22   ar
    11    22    23   ar
    12    23    24   ar
    13    24    25    1
    14     3     4    1
    15     4     5    1
    16     5     6    1
    17     6     7    1
    18     7     8   ar
    19     8     9   ar
    20     9    10   ar
    21    10    11    1
    22    10    12   ar
    23    12    13    1
    24    12    14   ar
    25     6     2   am
    26    14     7   ar
    27    25    17    1
    28    24    19   ar
@<TRIPOS>MOLECULE
*****
 25 28 0 0 0
SMALL
GASTEIGER

@<TRIPOS>ATOM
      1 O         139.0062  139.5350  165.7941 O.2     1  UNL1       -0.2520
      2 C         140.1926  138.9745  165.0672 C.2     1  UNL1        0.3111
      3 N         140.1475  138.0774  163.8660 N.am    1  UNL1       -0.2606
      4 C         141.5595  137.7612  163.4703 C.3     1  UNL1        0.1169
      5 C         142.4772  138.4630  164.4270 C.3     1  UNL1        0.1212
      6 N         141.6324  139.2129  165.4140 N.am    1  UNL1       -0.2413
      7 C         142.1386  140.0534  166.5485 C.ar    1  UNL1        0.0562
      8 C         142.5552  141.4732  166.3023 C.ar    1  UNL1        0.0159
      9 C         143.0614  142.3137  167.4369 C.ar    1  UNL1        0.0135
     10 C         143.1509  141.7345  168.8176 C.ar    1  UNL1        0.0683
     11 CL        143.6572  142.5751  169.9522 Cl      1  UNL1       -0.0814
     12 C         142.7343  140.3147  169.0638 C.ar    1  UNL1        0.0694
     13 CL        142.8239  139.7355  170.4446 Cl      1  UNL1       -0.0813
     14 C         142.2281  139.4742  167.9293 C.ar    1  UNL1        0.0272
     15 C         138.9081  137.5831  163.1807 C.3     1  UNL1        0.1123
     16 C         138.1892  138.4650  162.2032 C.3     1  UNL1        0.0944
     17 N         138.4034  139.9493  162.2339 N.3     1  UNL1       -0.2637
     18 C         139.5048  140.6957  161.5413 C.3     1  UNL1        0.0992
     19 C         139.3359  142.1555  161.8419 C.ar    1  UNL1       -0.0088
     20 C         140.1243  143.3630  161.4292 C.ar    1  UNL1       -0.0032
     21 C         139.7069  144.7263  161.8950 C.ar    1  UNL1       -0.0003
     22 C         138.5010  144.8822  162.7734 C.ar    1  UNL1       -0.0003
     23 C         137.7126  143.6747  163.1861 C.ar    1  UNL1       -0.0032
     24 C         138.1301  142.3114  162.7203 C.ar    1  UNL1       -0.0088
     25 C         137.5538  140.9478  162.9626 C.3     1  UNL1        0.0992
@<TRIPOS>BOND
     1     1     2    2
     2     2     3   am
     3     3    15    1
     4    15    16    1
     5    16    17    1
     6    17    18    1
     7    18    19    1
     8    19    20   ar
     9    20    21   ar
    10    21    22   ar
    11    22    23   ar
    12    23    24   ar
    13    24    25    1
    14     3     4    1
    15     4     5    1
    16     5     6    1
    17     6     7    1
    18     7     8   ar
    19     8     9   ar
    20     9    10   ar
    21    10    11    1
    22    10    12   ar
    23    12    13    1
    24    12    14   ar
    25     6     2   am
    26    14     7   ar
    27    25    17    1
    28    24    19   ar
@<TRIPOS>MOLECULE
*****
 25 28 0 0 0
SMALL
GASTEIGER

@<TRIPOS>ATOM
      1 O         143.5063  142.6641  165.7645 O.2     1  UNL1       -0.2520
      2 C         143.7331  141.2287  165.3928 C.2     1  UNL1        0.3111
      3 N         144.7298  140.7240  164.3919 N.am    1  UNL1       -0.2606
      4 C         144.6157  139.2293  164.3372 C.3     1  UNL1        0.1169
      5 C         143.5483  138.8103  165.3043 C.3     1  UNL1        0.1212
      6 N         143.0029  140.0460  165.9567 N.am    1  UNL1       -0.2413
      7 C         141.9178  140.0910  166.9913 C.ar    1  UNL1        0.0562
      8 C         140.4883  139.8805  166.5885 C.ar    1  UNL1        0.0159
      9 C         139.4032  139.9255  167.6232 C.ar    1  UNL1        0.0135
     10 C         139.7476  140.1810  169.0606 C.ar    1  UNL1        0.0683
     11 CL        138.6624  140.2260  170.0953 Cl      1  UNL1       -0.0814
     12 C         141.1771  140.3915  169.4634 C.ar    1  UNL1        0.0694
     13 CL        141.5215  140.6470  170.9008 Cl      1  UNL1       -0.0813
     14 C         142.2622  140.3465  168.4287 C.ar    1  UNL1        0.0272
     15 C         145.6748  141.5661  163.5870 C.3     1  UNL1        0.1123
     16 C         145.1799  142.3000  162.3761 C.3     1  UNL1        0.0944
     17 N         143.7845  142.8497  162.3504 N.3     1  UNL1       -0.2637
     18 C         142.5437  142.0888  161.9878 C.3     1  UNL1        0.0992
     19 C         141.3771  143.0256  162.0962 C.ar    1  UNL1       -0.0088
     20 C         139.9088  142.8317  161.8591 C.ar    1  UNL1       -0.0032
     21 C         138.9602  143.9776  162.0518 C.ar    1  UNL1       -0.0003
     22 C         139.4801  145.3174  162.4815 C.ar    1  UNL1       -0.0003
     23 C         140.9485  145.5113  162.7186 C.ar    1  UNL1       -0.0032
     24 C         141.8970  144.3654  162.5259 C.ar    1  UNL1       -0.0088
     25 C         143.3848  144.2567  162.6830 C.3     1  UNL1        0.0992
@<TRIPOS>BOND
     1     1     2    2
     2     2     3   am
     3     3    15    1
     4    15    16    1
     5    16    17    1
     6    17    18    1
     7    18    19    1
     8    19    20   ar
     9    20    21   ar
    10    21    22   ar
    11    22    23   ar
    12    23    24   ar
    13    24    25    1
    14     3     4    1
    15     4     5    1
    16     5     6    1
    17     6     7    1
    18     7     8   ar
    19     8     9   ar
    20     9    10   ar
    21    10    11    1
    22    10    12   ar
    23    12    13    1
    24    12    14   ar
    25     6     2   am
    26    14     7   ar
    27    25    17    1
    28    24    19   ar
@<TRIPOS>MOLECULE
*****
 25 28 0 0 0
SMALL
GASTEIGER

@<TRIPOS>ATOM
      1 O         140.8892  138.1617  165.4968 O.2     1  UNL1       -0.2520
      2 C         139.8642  139.0819  164.9029 C.2     1  UNL1        0.3111
      3 N         139.2195  138.9321  163.5568 N.am    1  UNL1       -0.2606
      4 C         138.2608  140.0711  163.3727 C.3     1  UNL1        0.1169
      5 C         138.3131  140.9246  164.6051 C.3     1  UNL1        0.1212
      6 N         139.3040  140.3133  165.5508 N.am    1  UNL1       -0.2413
      7 C         139.6704  140.8408  166.9063 C.ar    1  UNL1        0.0562
      8 C         140.2827  142.2035  167.0404 C.ar    1  UNL1        0.0159
      9 C         140.6491  142.7310  168.3960 C.ar    1  UNL1        0.0135
     10 C         140.4031  141.8957  169.6174 C.ar    1  UNL1        0.0683
     11 CL        140.7695  142.4232  170.9730 Cl      1  UNL1       -0.0814
     12 C         139.7908  140.5330  169.4832 C.ar    1  UNL1        0.0694
     13 CL        139.5448  139.6977  170.7047 Cl      1  UNL1       -0.0813
     14 C         139.4244  140.0055  168.1277 C.ar    1  UNL1        0.0272
     15 C         139.4865  137.8360  162.5683 C.3     1  UNL1        0.1123
     16 C         140.7927  137.7917  161.8321 C.3     1  UNL1        0.0944
     17 N         141.8696  138.7847  162.1549 N.3     1  UNL1       -0.2637
     18 C         143.0680  138.5351  163.0218 C.3     1  UNL1        0.0992
     19 C         143.8762  139.7978  163.0703 C.ar    1  UNL1       -0.0088
     20 C         145.1583  140.1426  163.7683 C.ar    1  UNL1       -0.0032
     21 C         145.7415  141.5176  163.6294 C.ar    1  UNL1       -0.0003
     22 C         145.0426  142.5477  162.7924 C.ar    1  UNL1       -0.0003
     23 C         143.7606  142.2028  162.0943 C.ar    1  UNL1       -0.0032
     24 C         143.1774  140.8278  162.2332 C.ar    1  UNL1       -0.0088
     25 C         141.9372  140.2017  161.6676 C.3     1  UNL1        0.0992
@<TRIPOS>BOND
     1     1     2    2
     2     2     3   am
     3     3    15    1
     4    15    16    1
     5    16    17    1
     6    17    18    1
     7    18    19    1
     8    19    20   ar
     9    20    21   ar
    10    21    22   ar
    11    22    23   ar
    12    23    24   ar
    13    24    25    1
    14     3     4    1
    15     4     5    1
    16     5     6    1
    17     6     7    1
    18     7     8   ar
    19     8     9   ar
    20     9    10   ar
    21    10    11    1
    22    10    12   ar
    23    12    13    1
    24    12    14   ar
    25     6     2   am
    26    14     7   ar
    27    25    17    1
    28    24    19   ar
@<TRIPOS>MOLECULE
*****
 25 28 0 0 0
SMALL
GASTEIGER

@<TRIPOS>ATOM
      1 O         138.0605  139.8285  165.0557 O.2     1  UNL1       -0.2520
      2 C         139.2234  138.9740  164.6462 C.2     1  UNL1        0.3111
      3 N         139.3192  138.1583  163.3910 N.am    1  UNL1       -0.2606
      4 C         140.6497  137.4654  163.3890 C.3     1  UNL1        0.1169
      5 C         141.3760  137.8530  164.6430 C.3     1  UNL1        0.1212
      6 N         140.4945  138.7854  165.4199 N.am    1  UNL1       -0.2413
      7 C         140.8260  139.4180  166.7389 C.ar    1  UNL1        0.0562
      8 C         142.2536  139.7148  167.0907 C.ar    1  UNL1        0.0159
      9 C         142.5850  140.3475  168.4098 C.ar    1  UNL1        0.0135
     10 C         141.4887  140.6832  169.3770 C.ar    1  UNL1        0.0683
     11 CL        141.8202  141.3159  170.6962 Cl      1  UNL1       -0.0814
     12 C         140.0611  140.3864  169.0252 C.ar    1  UNL1        0.0694
     13 CL        138.9649  140.7222  169.9925 Cl      1  UNL1       -0.0813
     14 C         139.7297  139.7538  167.7062 C.ar    1  UNL1        0.0272
     15 C         138.2691  138.0537  162.3251 C.3     1  UNL1        0.1123
     16 C         138.1455  139.1284  161.2860 C.3     1  UNL1        0.0944
     17 N         138.5716  140.5312  161.6035 N.3     1  UNL1       -0.2637
     18 C         139.9484  141.0974  161.4198 C.3     1  UNL1        0.0992
     19 C         139.9234  142.5301  161.8632 C.ar    1  UNL1       -0.0088
     20 C         140.9885  143.5852  161.9093 C.ar    1  UNL1       -0.0032
     21 C         140.6614  144.9597  162.4131 C.ar    1  UNL1       -0.0003
     22 C         139.2691  145.2790  162.8709 C.ar    1  UNL1       -0.0003
     23 C         138.2039  144.2238  162.8248 C.ar    1  UNL1       -0.0032
     24 C         138.5311  142.8494  162.3210 C.ar    1  UNL1       -0.0088
     25 C         137.6957  141.6140  162.1605 C.3     1  UNL1        0.0992
@<TRIPOS>BOND
     1     1     2    2
     2     2     3   am
     3     3    15    1
     4    15    16    1
     5    16    17    1
     6    17    18    1
     7    18    19    1
     8    19    20   ar
     9    20    21   ar
    10    21    22   ar
    11    22    23   ar
    12    23    24   ar
    13    24    25    1
    14     3     4    1
    15     4     5    1
    16     5     6    1
    17     6     7    1
    18     7     8   ar
    19     8     9   ar
    20     9    10   ar
    21    10    11    1
    22    10    12   ar
    23    12    13    1
    24    12    14   ar
    25     6     2   am
    26    14     7   ar
    27    25    17    1
    28    24    19   ar
@<TRIPOS>MOLECULE
*****
 25 28 0 0 0
SMALL
GASTEIGER

@<TRIPOS>ATOM
      1 O         141.5132  138.0819  165.4709 O.2     1  UNL1       -0.2520
      2 C         140.2403  138.7745  165.0835 C.2     1  UNL1        0.3111
      3 N         139.4756  138.5663  163.8100 N.am    1  UNL1       -0.2606
      4 C         138.2713  139.4601  163.8411 C.3     1  UNL1        0.1169
      5 C         138.2917  140.2206  165.1339 C.3     1  UNL1        0.1212
      6 N         139.5087  139.7969  165.9017 N.am    1  UNL1       -0.2413
      7 C         139.9214  140.3061  167.2508 C.ar    1  UNL1        0.0562
      8 C         139.0869  139.9944  168.4577 C.ar    1  UNL1        0.0159
      9 C         139.4997  140.5037  169.8068 C.ar    1  UNL1        0.0135
     10 C         140.7470  141.3247  169.9491 C.ar    1  UNL1        0.0683
     11 CL        141.1598  141.8341  171.2983 Cl      1  UNL1       -0.0814
     12 C         141.5814  141.6365  168.7423 C.ar    1  UNL1        0.0694
     13 CL        142.8287  142.4576  168.8846 Cl      1  UNL1       -0.0813
     14 C         141.1686  141.1272  167.3931 C.ar    1  UNL1        0.0272
     15 C         139.8495  137.6290  162.7002 C.3     1  UNL1        0.1123
     16 C         140.9207  138.0131  161.7230 C.3     1  UNL1        0.0944
     17 N         141.9312  139.0589  162.0905 N.3     1  UNL1       -0.2637
     18 C         141.8148  140.5302  161.8227 C.3     1  UNL1        0.0992
     19 C         143.0472  141.1977  162.3571 C.ar    1  UNL1       -0.0088
     20 C         143.4832  142.6327  162.3764 C.ar    1  UNL1       -0.0032
     21 C         144.7975  143.0090  162.9937 C.ar    1  UNL1       -0.0003
     22 C         145.6757  141.9502  163.5918 C.ar    1  UNL1       -0.0003
     23 C         145.2397  140.5151  163.5726 C.ar    1  UNL1       -0.0032
     24 C         143.9254  140.1389  162.9552 C.ar    1  UNL1       -0.0088
     25 C         143.2357  138.8171  162.7905 C.3     1  UNL1        0.0992
@<TRIPOS>BOND
     1     1     2    2
     2     2     3   am
     3     3    15    1
     4    15    16    1
     5    16    17    1
     6    17    18    1
     7    18    19    1
     8    19    20   ar
     9    20    21   ar
    10    21    22   ar
    11    22    23   ar
    12    23    24   ar
    13    24    25    1
    14     3     4    1
    15     4     5    1
    16     5     6    1
    17     6     7    1
    18     7     8   ar
    19     8     9   ar
    20     9    10   ar
    21    10    11    1
    22    10    12   ar
    23    12    13    1
    24    12    14   ar
    25     6     2   am
    26    14     7   ar
    27    25    17    1
    28    24    19   ar
@<TRIPOS>MOLECULE
*****
 25 28 0 0 0
SMALL
GASTEIGER

@<TRIPOS>ATOM
      1 O         143.2377  140.8882  166.0855 O.2     1  UNL1       -0.2520
      2 C         143.1696  140.1443  164.7848 C.2     1  UNL1        0.3111
      3 N         144.2107  140.1589  163.7051 N.am    1  UNL1       -0.2606
      4 C         143.7329  139.2787  162.5884 C.3     1  UNL1        0.1169
      5 C         142.3964  138.7201  162.9780 C.3     1  UNL1        0.1212
      6 N         142.0483  139.2550  164.3354 N.am    1  UNL1       -0.2413
      7 C         140.7983  138.9536  165.1078 C.ar    1  UNL1        0.0562
      8 C         139.8160  137.9491  164.5826 C.ar    1  UNL1        0.0159
      9 C         138.5660  137.6477  165.3551 C.ar    1  UNL1        0.0135
     10 C         138.2983  138.3509  166.6527 C.ar    1  UNL1        0.0683
     11 CL        137.0482  138.0495  167.4252 Cl      1  UNL1       -0.0814
     12 C         139.2806  139.3555  167.1779 C.ar    1  UNL1        0.0694
     13 CL        139.0130  140.0587  168.4756 Cl      1  UNL1       -0.0813
     14 C         140.5306  139.6569  166.4055 C.ar    1  UNL1        0.0272
     15 C         145.5029  140.9201  163.7365 C.3     1  UNL1        0.1123
     16 C         145.4903  142.4200  163.7221 C.3     1  UNL1        0.0944
     17 N         144.2900  143.1550  163.2036 N.3     1  UNL1       -0.2637
     18 C         143.3165  143.9453  164.0269 C.3     1  UNL1        0.0992
     19 C         142.2772  144.5076  163.1029 C.ar    1  UNL1       -0.0088
     20 C         141.0721  145.3655  163.3511 C.ar    1  UNL1       -0.0032
     21 C         140.1982  145.7807  162.2049 C.ar    1  UNL1       -0.0003
     22 C         140.5293  145.3378  160.8105 C.ar    1  UNL1       -0.0003
     23 C         141.7344  144.4799  160.5623 C.ar    1  UNL1       -0.0032
     24 C         142.6083  144.0647  161.7085 C.ar    1  UNL1       -0.0088
     25 C         143.8523  143.2288  161.7708 C.3     1  UNL1        0.0992
@<TRIPOS>BOND
     1     1     2    2
     2     2     3   am
     3     3    15    1
     4    15    16    1
     5    16    17    1
     6    17    18    1
     7    18    19    1
     8    19    20   ar
     9    20    21   ar
    10    21    22   ar
    11    22    23   ar
    12    23    24   ar
    13    24    25    1
    14     3     4    1
    15     4     5    1
    16     5     6    1
    17     6     7    1
    18     7     8   ar
    19     8     9   ar
    20     9    10   ar
    21    10    11    1
    22    10    12   ar
    23    12    13    1
    24    12    14   ar
    25     6     2   am
    26    14     7   ar
    27    25    17    1
    28    24    19   ar
@<TRIPOS>MOLECULE
*****
 25 28 0 0 0
SMALL
GASTEIGER

@<TRIPOS>ATOM
      1 O         140.2533  141.7872  160.9983 O.2     1  UNL1       -0.2520
      2 C         139.5743  142.7864  161.8875 C.2     1  UNL1        0.3111
      3 N         139.4447  144.2572  161.6231 N.am    1  UNL1       -0.2606
      4 C         138.6960  144.8700  162.7695 C.3     1  UNL1        0.1169
      5 C         138.3630  143.7779  163.7423 C.3     1  UNL1        0.1212
      6 N         138.9058  142.4901  163.1973 N.am    1  UNL1       -0.2413
      7 C         138.7989  141.1428  163.8477 C.ar    1  UNL1        0.0562
      8 C         138.6106  139.9161  163.0053 C.ar    1  UNL1        0.0159
      9 C         138.5037  138.5687  163.6559 C.ar    1  UNL1        0.0135
     10 C         138.5850  138.4482  165.1489 C.ar    1  UNL1        0.0683
     11 CL        138.4781  137.1007  165.7994 Cl      1  UNL1       -0.0814
     12 C         138.7733  139.6749  165.9912 C.ar    1  UNL1        0.0694
     13 CL        138.8546  139.5543  167.4842 Cl      1  UNL1       -0.0813
     14 C         138.8802  141.0222  165.3407 C.ar    1  UNL1        0.0272
     15 C         139.9712  144.9871  160.4231 C.3     1  UNL1        0.1123
     16 C         141.4508  145.1025  160.2050 C.3     1  UNL1        0.0944
     17 N         142.4023  144.4099  161.1350 N.3     1  UNL1       -0.2637
     18 C         143.3311  143.2893  160.7722 C.3     1  UNL1        0.0992
     19 C         144.0949  142.9030  162.0040 C.ar    1  UNL1       -0.0088
     20 C         145.1473  141.8622  162.2473 C.ar    1  UNL1       -0.0032
     21 C         145.7429  141.7033  163.6147 C.ar    1  UNL1       -0.0003
     22 C         145.2862  142.5851  164.7388 C.ar    1  UNL1       -0.0003
     23 C         144.2338  143.6259  164.4956 C.ar    1  UNL1       -0.0032
     24 C         143.6381  143.7848  163.1281 C.ar    1  UNL1       -0.0088
     25 C         142.5921  144.7161  162.5911 C.3     1  UNL1        0.0992
@<TRIPOS>BOND
     1     1     2    2
     2     2     3   am
     3     3    15    1
     4    15    16    1
     5    16    17    1
     6    17    18    1
     7    18    19    1
     8    19    20   ar
     9    20    21   ar
    10    21    22   ar
    11    22    23   ar
    12    23    24   ar
    13    24    25    1
    14     3     4    1
    15     4     5    1
    16     5     6    1
    17     6     7    1
    18     7     8   ar
    19     8     9   ar
    20     9    10   ar
    21    10    11    1
    22    10    12   ar
    23    12    13    1
    24    12    14   ar
    25     6     2   am
    26    14     7   ar
    27    25    17    1
    28    24    19   ar
