@<TRIPOS>MOLECULE
*****
 31 34 0 0 0
SMALL
GASTEIGER

@<TRIPOS>ATOM
      1 C         139.2641  142.7631  164.1764 C.ar    1  UNL1        0.0522
      2 C         138.5693  142.7102  162.8482 C.ar    1  UNL1        0.0853
      3 C         137.7459  141.5118  162.4797 C.ar    1  UNL1        0.1045
      4 N         137.6173  140.3662  163.4394 N.ar    1  UNL1       -0.2436
      5 C         138.3122  140.4191  164.7678 C.ar    1  UNL1        0.0825
      6 C         138.1837  139.2735  165.7275 C.ar    1  UNL1        0.0191
      7 C         138.8786  139.3264  167.0558 C.ar    1  UNL1        0.0016
      8 C         139.7019  140.5249  167.4243 C.ar    1  UNL1        0.0016
      9 C         139.8305  141.6704  166.4645 C.ar    1  UNL1        0.0028
     10 C         139.1356  141.6175  165.1363 C.ar    1  UNL1        0.0310
     11 C         140.3968  140.5777  168.7526 C.ar    1  UNL1        0.0192
     12 C         141.7546  139.9609  168.9139 C.ar    1  UNL1        0.0031
     13 C         142.4495  140.0138  170.2422 C.ar    1  UNL1        0.0207
     14 C         141.7865  140.6834  171.4093 C.ar    1  UNL1        0.0989
     15 N         140.4287  141.3003  171.2480 N.ar    1  UNL1       -0.2423
     16 C         139.7339  141.2474  169.9197 C.ar    1  UNL1        0.0988
     17 C         138.6978  143.8558  161.8883 C.2     1  UNL1        0.2455
     18 N         139.0757  143.5984  160.4597 N.am    1  UNL1       -0.3252
     19 O         138.4484  145.2586  162.3571 O.2     1  UNL1       -0.2703
     20 H         139.2394  142.6777  160.1520 H       1  UNL1        0.1453
     21 H         139.1600  144.3503  159.8298 H       1  UNL1        0.1453
     22 N         140.0875  143.9615  164.5449 N.pl3   1  UNL1       -0.3292
     23 H         139.7017  144.6687  165.1109 H       1  UNL1        0.1471
     24 C         142.0007  145.3961  163.5291 C.3     1  UNL1        0.0278
     25 C         141.4987  144.0825  164.0510 C.3     1  UNL1        0.1117
     26 C         142.4080  142.8898  164.0791 C.ar    1  UNL1        0.0978
     27 C         143.1534  142.3773  165.2757 C.ar    1  UNL1        0.0383
     28 C         143.9376  141.1710  164.8516 C.ar    1  UNL1        0.0964
     29 N         143.6769  140.9379  163.3930 N.ar    1  UNL1       -0.2476
     30 C         144.2592  139.8361  162.5583 C.3     1  UNL1        0.1537
     31 N         142.7315  142.0002  162.9155 N.ar    1  UNL1       -0.1719
@<TRIPOS>BOND
     1    25    24    1
     2    25    22    1
     3    22     1    1
     4     1     2   ar
     5     2    17    1
     6    17    18   am
     7    17    19    2
     8     2     3   ar
     9     3     4   ar
    10     4     5   ar
    11     5     6   ar
    12     6     7   ar
    13     7     8   ar
    14     8    11    1
    15    11    12   ar
    16    12    13   ar
    17    13    14   ar
    18    14    15   ar
    19    15    16   ar
    20     8     9   ar
    21     9    10   ar
    22    25    26    1
    23    26    27   ar
    24    27    28   ar
    25    28    29   ar
    26    29    30    1
    27    29    31   ar
    28    10     1   ar
    29    31    26   ar
    30    10     5   ar
    31    16    11   ar
    32    22    23    1
    33    18    20    1
    34    18    21    1
@<TRIPOS>MOLECULE
*****
 31 34 0 0 0
SMALL
GASTEIGER

@<TRIPOS>ATOM
      1 C         140.5431  143.7249  163.6151 C.ar    1  UNL1        0.0522
      2 C         139.8586  144.2397  162.3837 C.ar    1  UNL1        0.0853
      3 C         138.6238  143.5589  161.8719 C.ar    1  UNL1        0.1045
      4 N         138.0736  142.3634  162.5915 N.ar    1  UNL1       -0.2436
      5 C         138.7581  141.8486  163.8230 C.ar    1  UNL1        0.0825
      6 C         138.2078  140.6531  164.5426 C.ar    1  UNL1        0.0191
      7 C         138.8923  140.1383  165.7740 C.ar    1  UNL1        0.0016
      8 C         140.1271  140.8190  166.2858 C.ar    1  UNL1        0.0016
      9 C         140.6774  142.0145  165.5662 C.ar    1  UNL1        0.0028
     10 C         139.9929  142.5293  164.3348 C.ar    1  UNL1        0.0310
     11 C         140.8116  140.3042  167.5173 C.ar    1  UNL1        0.0192
     12 C         140.1180  140.3737  168.8454 C.ar    1  UNL1        0.0031
     13 C         140.8025  139.8588  170.0769 C.ar    1  UNL1        0.0207
     14 C         142.1806  139.2745  169.9801 C.ar    1  UNL1        0.0989
     15 N         142.8742  139.2050  168.6519 N.ar    1  UNL1       -0.2423
     16 C         142.1897  139.7198  167.4205 C.ar    1  UNL1        0.0988
     17 C         140.4089  145.4353  161.6640 C.2     1  UNL1        0.2455
     18 N         141.5234  145.2675  160.6742 N.am    1  UNL1       -0.3252
     19 O         139.8446  146.7985  161.9341 O.2     1  UNL1       -0.2703
     20 H         141.8938  144.3727  160.4969 H       1  UNL1        0.1453
     21 H         141.8846  146.0521  160.2019 H       1  UNL1        0.1453
     22 N         141.7779  144.4056  164.1269 N.pl3   1  UNL1       -0.3292
     23 H         141.7054  145.2654  164.6010 H       1  UNL1        0.1471
     24 C         144.1924  143.9257  164.9576 C.3     1  UNL1        0.0278
     25 C         143.1232  143.7764  163.9162 C.3     1  UNL1        0.1117
     26 C         143.3993  142.9978  162.6642 C.ar    1  UNL1        0.0978
     27 C         143.2256  141.5182  162.4897 C.ar    1  UNL1        0.0383
     28 C         143.6164  141.1681  161.0844 C.ar    1  UNL1        0.0964
     29 N         144.0317  142.4314  160.3904 N.ar    1  UNL1       -0.2476
     30 C         144.4991  142.5441  158.9696 C.3     1  UNL1        0.1537
     31 N         143.8975  143.5623  161.3667 N.ar    1  UNL1       -0.1719
@<TRIPOS>BOND
     1    25    24    1
     2    25    22    1
     3    22     1    1
     4     1     2   ar
     5     2    17    1
     6    17    18   am
     7    17    19    2
     8     2     3   ar
     9     3     4   ar
    10     4     5   ar
    11     5     6   ar
    12     6     7   ar
    13     7     8   ar
    14     8    11    1
    15    11    12   ar
    16    12    13   ar
    17    13    14   ar
    18    14    15   ar
    19    15    16   ar
    20     8     9   ar
    21     9    10   ar
    22    25    26    1
    23    26    27   ar
    24    27    28   ar
    25    28    29   ar
    26    29    30    1
    27    29    31   ar
    28    10     1   ar
    29    31    26   ar
    30    10     5   ar
    31    16    11   ar
    32    22    23    1
    33    18    20    1
    34    18    21    1
@<TRIPOS>MOLECULE
*****
 31 34 0 0 0
SMALL
GASTEIGER

@<TRIPOS>ATOM
      1 C         141.2608  141.6772  167.6965 C.ar    1  UNL1        0.0522
      2 C         141.6303  141.6668  169.1502 C.ar    1  UNL1        0.0853
      3 C         140.8809  140.7889  170.1082 C.ar    1  UNL1        0.1045
      4 N         139.7622  139.9214  169.6125 N.ar    1  UNL1       -0.2436
      5 C         139.3927  139.9318  168.1587 C.ar    1  UNL1        0.0825
      6 C         138.2739  139.0643  167.6630 C.ar    1  UNL1        0.0191
      7 C         137.9045  139.0747  166.2092 C.ar    1  UNL1        0.0016
      8 C         138.6539  139.9526  165.2512 C.ar    1  UNL1        0.0016
      9 C         139.7726  140.8201  165.7470 C.ar    1  UNL1        0.0028
     10 C         140.1420  140.8097  167.2007 C.ar    1  UNL1        0.0310
     11 C         138.2844  139.9630  163.7974 C.ar    1  UNL1        0.0192
     12 C         138.4475  138.7204  162.9732 C.ar    1  UNL1        0.0031
     13 C         138.0780  138.7308  161.5194 C.ar    1  UNL1        0.0207
     14 C         137.5454  139.9839  160.8899 C.ar    1  UNL1        0.0989
     15 N         137.3824  141.2265  161.7142 N.ar    1  UNL1       -0.2423
     16 C         137.7519  141.2161  163.1679 C.ar    1  UNL1        0.0988
     17 C         142.7491  142.5343  169.6460 C.2     1  UNL1        0.2455
     18 N         142.6713  143.1512  171.0111 N.am    1  UNL1       -0.3252
     19 O         143.9456  142.7849  168.7768 O.2     1  UNL1       -0.2703
     20 H         141.8860  142.9868  171.5816 H       1  UNL1        0.1453
     21 H         143.4056  143.7206  171.3365 H       1  UNL1        0.1453
     22 N         142.0102  142.5551  166.7385 N.pl3   1  UNL1       -0.3292
     23 H         141.9497  143.5346  166.8180 H       1  UNL1        0.1471
     24 C         143.5015  140.6074  165.8827 C.3     1  UNL1        0.0278
     25 C         142.8517  141.9408  165.6594 C.3     1  UNL1        0.1117
     26 C         143.0435  142.6598  164.3570 C.ar    1  UNL1        0.0978
     27 C         144.3594  142.9830  163.7137 C.ar    1  UNL1        0.0383
     28 C         144.0822  143.7049  162.4284 C.ar    1  UNL1        0.0964
     29 N         142.5949  143.8278  162.2773 N.ar    1  UNL1       -0.2476
     30 C         141.8758  144.4818  161.1348 C.3     1  UNL1        0.1537
     31 N         141.9529  143.1819  163.4692 N.ar    1  UNL1       -0.1719
@<TRIPOS>BOND
     1    25    24    1
     2    25    22    1
     3    22     1    1
     4     1     2   ar
     5     2    17    1
     6    17    18   am
     7    17    19    2
     8     2     3   ar
     9     3     4   ar
    10     4     5   ar
    11     5     6   ar
    12     6     7   ar
    13     7     8   ar
    14     8    11    1
    15    11    12   ar
    16    12    13   ar
    17    13    14   ar
    18    14    15   ar
    19    15    16   ar
    20     8     9   ar
    21     9    10   ar
    22    25    26    1
    23    26    27   ar
    24    27    28   ar
    25    28    29   ar
    26    29    30    1
    27    29    31   ar
    28    10     1   ar
    29    31    26   ar
    30    10     5   ar
    31    16    11   ar
    32    22    23    1
    33    18    20    1
    34    18    21    1
@<TRIPOS>MOLECULE
*****
 31 34 0 0 0
SMALL
GASTEIGER

@<TRIPOS>ATOM
      1 C         140.1853  141.5701  168.1546 C.ar    1  UNL1        0.0522
      2 C         139.8126  141.6379  169.6059 C.ar    1  UNL1        0.0853
      3 C         138.8469  140.6437  170.1795 C.ar    1  UNL1        0.1045
      4 N         138.2539  139.5817  169.3017 N.ar    1  UNL1       -0.2436
      5 C         138.6267  139.5139  167.8503 C.ar    1  UNL1        0.0825
      6 C         138.0337  138.4519  166.9725 C.ar    1  UNL1        0.0191
      7 C         138.4064  138.3841  165.5212 C.ar    1  UNL1        0.0016
      8 C         139.3721  139.3783  164.9476 C.ar    1  UNL1        0.0016
      9 C         139.9651  140.4402  165.8254 C.ar    1  UNL1        0.0028
     10 C         139.5924  140.5080  167.2767 C.ar    1  UNL1        0.0310
     11 C         139.7449  139.3104  163.4962 C.ar    1  UNL1        0.0192
     12 C         140.6715  140.3346  162.9112 C.ar    1  UNL1        0.0031
     13 C         141.0443  140.2668  161.4597 C.ar    1  UNL1        0.0207
     14 C         140.4903  139.1747  160.5934 C.ar    1  UNL1        0.0989
     15 N         139.5636  138.1504  161.1785 N.ar    1  UNL1       -0.2423
     16 C         139.1909  138.2183  162.6299 C.ar    1  UNL1        0.0988
     17 C         140.4056  142.6999  170.4837 C.2     1  UNL1        0.2455
     18 N         140.0613  144.1416  170.2537 N.am    1  UNL1       -0.3252
     19 O         141.3428  142.3202  171.5916 O.2     1  UNL1       -0.2703
     20 H         139.4461  144.3908  169.5265 H       1  UNL1        0.1453
     21 H         140.4504  144.8387  170.8298 H       1  UNL1        0.1453
     22 N         141.1511  142.5643  167.5810 N.pl3   1  UNL1       -0.3292
     23 H         140.8341  143.4534  167.3012 H       1  UNL1        0.1471
     24 C         143.4486  141.9964  168.6529 C.3     1  UNL1        0.0278
     25 C         142.5997  142.2038  167.4338 C.3     1  UNL1        0.1117
     26 C         143.1993  142.0506  166.0674 C.ar    1  UNL1        0.0978
     27 C         143.5859  140.7569  165.4141 C.ar    1  UNL1        0.0383
     28 C         144.1432  141.0710  164.0574 C.ar    1  UNL1        0.0964
     29 N         144.1010  142.5589  163.8721 N.ar    1  UNL1       -0.2476
     30 C         144.5614  143.3096  162.6578 C.3     1  UNL1        0.1537
     31 N         143.5177  143.1644  165.1144 N.ar    1  UNL1       -0.1719
@<TRIPOS>BOND
     1    25    24    1
     2    25    22    1
     3    22     1    1
     4     1     2   ar
     5     2    17    1
     6    17    18   am
     7    17    19    2
     8     2     3   ar
     9     3     4   ar
    10     4     5   ar
    11     5     6   ar
    12     6     7   ar
    13     7     8   ar
    14     8    11    1
    15    11    12   ar
    16    12    13   ar
    17    13    14   ar
    18    14    15   ar
    19    15    16   ar
    20     8     9   ar
    21     9    10   ar
    22    25    26    1
    23    26    27   ar
    24    27    28   ar
    25    28    29   ar
    26    29    30    1
    27    29    31   ar
    28    10     1   ar
    29    31    26   ar
    30    10     5   ar
    31    16    11   ar
    32    22    23    1
    33    18    20    1
    34    18    21    1
@<TRIPOS>MOLECULE
*****
 31 34 0 0 0
SMALL
GASTEIGER

@<TRIPOS>ATOM
      1 C         141.3494  139.3072  163.8625 C.ar    1  UNL1        0.0522
      2 C         141.0495  138.5182  162.6226 C.ar    1  UNL1        0.0853
      3 C         139.7917  137.7055  162.5367 C.ar    1  UNL1        0.1045
      4 N         138.8338  137.6817  163.6908 N.ar    1  UNL1       -0.2436
      5 C         139.1337  138.4708  164.9308 C.ar    1  UNL1        0.0825
      6 C         138.1758  138.4471  166.0849 C.ar    1  UNL1        0.0191
      7 C         138.4758  139.2361  167.3248 C.ar    1  UNL1        0.0016
      8 C         139.7336  140.0488  167.4106 C.ar    1  UNL1        0.0016
      9 C         140.6914  140.0725  166.2566 C.ar    1  UNL1        0.0028
     10 C         140.3915  139.2835  165.0167 C.ar    1  UNL1        0.0310
     11 C         140.0335  140.8379  168.6506 C.ar    1  UNL1        0.0192
     12 C         140.3642  142.2974  168.5492 C.ar    1  UNL1        0.0031
     13 C         140.6641  143.0865  169.7892 C.ar    1  UNL1        0.0207
     14 C         140.6333  142.4159  171.1306 C.ar    1  UNL1        0.0989
     15 N         140.3026  140.9563  171.2320 N.ar    1  UNL1       -0.2423
     16 C         140.0027  140.1673  169.9920 C.ar    1  UNL1        0.0988
     17 C         142.0073  138.5419  161.4685 C.2     1  UNL1        0.2455
     18 N         142.8761  137.3511  161.1903 N.am    1  UNL1       -0.3252
     19 O         142.0965  139.7563  160.5926 O.2     1  UNL1       -0.2703
     20 H         142.8176  136.5541  161.7651 H       1  UNL1        0.1453
     21 H         143.5047  137.3667  160.4328 H       1  UNL1        0.1453
     22 N         142.6072  140.1200  163.9484 N.pl3   1  UNL1       -0.3292
     23 H         143.4202  139.7287  164.3423 H       1  UNL1        0.1471
     24 C         143.8079  142.0274  162.6561 C.3     1  UNL1        0.0278
     25 C         142.6263  141.5290  163.4341 C.3     1  UNL1        0.1117
     26 C         141.4637  142.4394  163.6978 C.ar    1  UNL1        0.0978
     27 C         141.3338  143.3929  164.8485 C.ar    1  UNL1        0.0383
     28 C         140.0168  144.0990  164.7190 C.ar    1  UNL1        0.0964
     29 N         139.3327  143.5820  163.4883 N.ar    1  UNL1       -0.2476
     30 C         137.9900  144.0146  162.9782 C.3     1  UNL1        0.1537
     31 N         140.2269  142.5563  162.8571 N.ar    1  UNL1       -0.1719
@<TRIPOS>BOND
     1    25    24    1
     2    25    22    1
     3    22     1    1
     4     1     2   ar
     5     2    17    1
     6    17    18   am
     7    17    19    2
     8     2     3   ar
     9     3     4   ar
    10     4     5   ar
    11     5     6   ar
    12     6     7   ar
    13     7     8   ar
    14     8    11    1
    15    11    12   ar
    16    12    13   ar
    17    13    14   ar
    18    14    15   ar
    19    15    16   ar
    20     8     9   ar
    21     9    10   ar
    22    25    26    1
    23    26    27   ar
    24    27    28   ar
    25    28    29   ar
    26    29    30    1
    27    29    31   ar
    28    10     1   ar
    29    31    26   ar
    30    10     5   ar
    31    16    11   ar
    32    22    23    1
    33    18    20    1
    34    18    21    1
@<TRIPOS>MOLECULE
*****
 31 34 0 0 0
SMALL
GASTEIGER

@<TRIPOS>ATOM
      1 C         139.6514  139.1977  163.8718 C.ar    1  UNL1        0.0522
      2 C         140.0504  138.2943  162.7428 C.ar    1  UNL1        0.0853
      3 C         141.3381  137.5284  162.8143 C.ar    1  UNL1        0.1045
      4 N         142.2269  137.6658  164.0148 N.ar    1  UNL1       -0.2436
      5 C         141.8279  138.5693  165.1439 C.ar    1  UNL1        0.0825
      6 C         142.7166  138.7067  166.3444 C.ar    1  UNL1        0.0191
      7 C         142.3176  139.6101  167.4734 C.ar    1  UNL1        0.0016
      8 C         141.0299  140.3761  167.4018 C.ar    1  UNL1        0.0016
      9 C         140.1412  140.2386  166.2013 C.ar    1  UNL1        0.0028
     10 C         140.5402  139.3352  165.0724 C.ar    1  UNL1        0.0310
     11 C         140.6309  141.2795  168.5309 C.ar    1  UNL1        0.0192
     12 C         140.7658  142.7663  168.3853 C.ar    1  UNL1        0.0031
     13 C         140.3668  143.6697  169.5144 C.ar    1  UNL1        0.0207
     14 C         139.8330  143.0863  170.7890 C.ar    1  UNL1        0.0989
     15 N         139.6980  141.5994  170.9345 N.ar    1  UNL1       -0.2423
     16 C         140.0970  140.6961  169.8055 C.ar    1  UNL1        0.0988
     17 C         139.1617  138.1569  161.5422 C.2     1  UNL1        0.2455
     18 N         139.7299  138.3296  160.1648 N.am    1  UNL1       -0.3252
     19 O         137.7049  137.8467  161.7191 O.2     1  UNL1       -0.2703
     20 H         140.6861  138.5332  160.0487 H       1  UNL1        0.1453
     21 H         139.1467  138.2394  159.3768 H       1  UNL1        0.1453
     22 N         138.3637  139.9637  163.8002 N.pl3   1  UNL1       -0.3292
     23 H         137.5583  139.6153  164.2465 H       1  UNL1        0.1471
     24 C         137.5753  141.3353  161.7393 C.3     1  UNL1        0.0278
     25 C         138.3032  141.2605  163.0487 C.3     1  UNL1        0.1117
     26 C         138.9706  142.4825  163.6067 C.ar    1  UNL1        0.0978
     27 C         138.4669  143.3205  164.7442 C.ar    1  UNL1        0.0383
     28 C         139.4438  144.4370  164.9656 C.ar    1  UNL1        0.0964
     29 N         140.5514  144.2890  163.9649 N.ar    1  UNL1       -0.2476
     30 C         141.7423  145.1906  163.8281 C.3     1  UNL1        0.1537
     31 N         140.2590  143.0811  163.1250 N.ar    1  UNL1       -0.1719
@<TRIPOS>BOND
     1    25    24    1
     2    25    22    1
     3    22     1    1
     4     1     2   ar
     5     2    17    1
     6    17    18   am
     7    17    19    2
     8     2     3   ar
     9     3     4   ar
    10     4     5   ar
    11     5     6   ar
    12     6     7   ar
    13     7     8   ar
    14     8    11    1
    15    11    12   ar
    16    12    13   ar
    17    13    14   ar
    18    14    15   ar
    19    15    16   ar
    20     8     9   ar
    21     9    10   ar
    22    25    26    1
    23    26    27   ar
    24    27    28   ar
    25    28    29   ar
    26    29    30    1
    27    29    31   ar
    28    10     1   ar
    29    31    26   ar
    30    10     5   ar
    31    16    11   ar
    32    22    23    1
    33    18    20    1
    34    18    21    1
@<TRIPOS>MOLECULE
*****
 31 34 0 0 0
SMALL
GASTEIGER

@<TRIPOS>ATOM
      1 C         140.8965  144.1742  163.5167 C.ar    1  UNL1        0.0522
      2 C         141.7199  144.7423  162.3990 C.ar    1  UNL1        0.0853
      3 C         143.2144  144.6184  162.4305 C.ar    1  UNL1        0.1045
      4 N         143.8855  143.9264  163.5797 N.ar    1  UNL1       -0.2436
      5 C         143.0621  143.3582  164.6974 C.ar    1  UNL1        0.0825
      6 C         143.7333  142.6662  165.8466 C.ar    1  UNL1        0.0191
      7 C         142.9099  142.0981  166.9643 C.ar    1  UNL1        0.0016
      8 C         141.4153  142.2220  166.9328 C.ar    1  UNL1        0.0016
      9 C         140.7442  142.9140  165.7836 C.ar    1  UNL1        0.0028
     10 C         141.5676  143.4821  164.6659 C.ar    1  UNL1        0.0310
     11 C         140.5919  141.6539  168.0505 C.ar    1  UNL1        0.0192
     12 C         140.3583  142.4592  169.2942 C.ar    1  UNL1        0.0031
     13 C         139.5349  141.8910  170.4120 C.ar    1  UNL1        0.0207
     14 C         138.9452  140.5176  170.2859 C.ar    1  UNL1        0.0989
     15 N         139.1789  139.7123  169.0421 N.ar    1  UNL1       -0.2423
     16 C         140.0022  140.2804  167.9245 C.ar    1  UNL1        0.0988
     17 C         141.0487  145.4344  161.2497 C.2     1  UNL1        0.2455
     18 N         141.6306  145.3344  159.8708 N.am    1  UNL1       -0.3252
     19 O         139.7958  146.2263  161.4794 O.2     1  UNL1       -0.2703
     20 H         142.4530  144.8145  159.7201 H       1  UNL1        0.1453
     21 H         141.1902  145.7886  159.1165 H       1  UNL1        0.1453
     22 N         139.4019  144.2981  163.4851 N.pl3   1  UNL1       -0.3292
     23 H         138.9736  145.1516  163.7244 H       1  UNL1        0.1471
     24 C         137.5980  142.5228  164.0720 C.3     1  UNL1        0.0278
     25 C         138.5600  143.1215  163.0890 C.3     1  UNL1        0.1117
     26 C         138.6801  142.5437  161.7100 C.ar    1  UNL1        0.0978
     27 C         139.2506  141.2004  161.3635 C.ar    1  UNL1        0.0383
     28 C         139.1738  141.0342  159.8747 C.ar    1  UNL1        0.0964
     29 N         138.5558  142.2748  159.3011 N.ar    1  UNL1       -0.2476
     30 C         138.2897  142.5366  157.8483 C.3     1  UNL1        0.1537
     31 N         138.2506  143.2078  160.4353 N.ar    1  UNL1       -0.1719
@<TRIPOS>BOND
     1    25    24    1
     2    25    22    1
     3    22     1    1
     4     1     2   ar
     5     2    17    1
     6    17    18   am
     7    17    19    2
     8     2     3   ar
     9     3     4   ar
    10     4     5   ar
    11     5     6   ar
    12     6     7   ar
    13     7     8   ar
    14     8    11    1
    15    11    12   ar
    16    12    13   ar
    17    13    14   ar
    18    14    15   ar
    19    15    16   ar
    20     8     9   ar
    21     9    10   ar
    22    25    26    1
    23    26    27   ar
    24    27    28   ar
    25    28    29   ar
    26    29    30    1
    27    29    31   ar
    28    10     1   ar
    29    31    26   ar
    30    10     5   ar
    31    16    11   ar
    32    22    23    1
    33    18    20    1
    34    18    21    1
@<TRIPOS>MOLECULE
*****
 31 34 0 0 0
SMALL
GASTEIGER

@<TRIPOS>ATOM
      1 C         141.2533  144.1982  163.1823 C.ar    1  UNL1        0.0522
      2 C         141.3380  144.5725  161.7323 C.ar    1  UNL1        0.0853
      3 C         142.3503  143.9110  160.8448 C.ar    1  UNL1        0.1045
      4 N         143.2780  142.8753  161.4075 N.ar    1  UNL1       -0.2436
      5 C         143.1934  142.5010  162.8576 C.ar    1  UNL1        0.0825
      6 C         144.1211  141.4653  163.4203 C.ar    1  UNL1        0.0191
      7 C         144.0364  141.0910  164.8703 C.ar    1  UNL1        0.0016
      8 C         143.0240  141.7525  165.7577 C.ar    1  UNL1        0.0016
      9 C         142.0963  142.7882  165.1951 C.ar    1  UNL1        0.0028
     10 C         142.1810  143.1625  163.7450 C.ar    1  UNL1        0.0310
     11 C         142.9393  141.3782  167.2079 C.ar    1  UNL1        0.0192
     12 C         142.5562  139.9823  167.6010 C.ar    1  UNL1        0.0031
     13 C         142.4715  139.6080  169.0512 C.ar    1  UNL1        0.0207
     14 C         142.7701  140.6297  170.1081 C.ar    1  UNL1        0.0989
     15 N         143.1532  142.0257  169.7149 N.ar    1  UNL1       -0.2423
     16 C         143.2379  142.3999  168.2648 C.ar    1  UNL1        0.0988
     17 C         140.4102  145.6082  161.1695 C.2     1  UNL1        0.2455
     18 N         139.9338  145.4973  159.7515 N.am    1  UNL1       -0.3252
     19 O         139.9590  146.7549  162.0248 O.2     1  UNL1       -0.2703
     20 H         140.2300  144.7447  159.1902 H       1  UNL1        0.1453
     21 H         139.3249  146.1771  159.3822 H       1  UNL1        0.1453
     22 N         140.2409  144.8597  164.0697 N.pl3   1  UNL1       -0.3292
     23 H         140.4300  145.7444  164.4580 H       1  UNL1        0.1471
     24 C         138.0079  144.7436  165.3927 C.3     1  UNL1        0.0278
     25 C         138.9404  144.1732  164.3656 C.3     1  UNL1        0.1117
     26 C         138.5725  142.9163  163.6342 C.ar    1  UNL1        0.0978
     27 C         137.8805  142.8397  162.3056 C.ar    1  UNL1        0.0383
     28 C         137.7123  141.3914  161.9533 C.ar    1  UNL1        0.0964
     29 N         138.3004  140.5729  163.0642 N.ar    1  UNL1       -0.2476
     30 C         138.3484  139.0749  163.1255 C.3     1  UNL1        0.1537
     31 N         138.8320  141.5153  164.1031 N.ar    1  UNL1       -0.1719
@<TRIPOS>BOND
     1    25    24    1
     2    25    22    1
     3    22     1    1
     4     1     2   ar
     5     2    17    1
     6    17    18   am
     7    17    19    2
     8     2     3   ar
     9     3     4   ar
    10     4     5   ar
    11     5     6   ar
    12     6     7   ar
    13     7     8   ar
    14     8    11    1
    15    11    12   ar
    16    12    13   ar
    17    13    14   ar
    18    14    15   ar
    19    15    16   ar
    20     8     9   ar
    21     9    10   ar
    22    25    26    1
    23    26    27   ar
    24    27    28   ar
    25    28    29   ar
    26    29    30    1
    27    29    31   ar
    28    10     1   ar
    29    31    26   ar
    30    10     5   ar
    31    16    11   ar
    32    22    23    1
    33    18    20    1
    34    18    21    1
@<TRIPOS>MOLECULE
*****
 31 34 0 0 0
SMALL
GASTEIGER

@<TRIPOS>ATOM
      1 C         139.2415  140.3729  163.5738 C.ar    1  UNL1        0.0522
      2 C         138.4243  140.3958  162.3161 C.ar    1  UNL1        0.0853
      3 C         137.6833  141.6401  161.9257 C.ar    1  UNL1        0.1045
      4 N         137.7595  142.8616  162.7929 N.ar    1  UNL1       -0.2436
      5 C         138.5767  142.8388  164.0506 C.ar    1  UNL1        0.0825
      6 C         138.6528  144.0603  164.9178 C.ar    1  UNL1        0.0191
      7 C         139.4699  144.0374  166.1755 C.ar    1  UNL1        0.0016
      8 C         140.2110  142.7930  166.5659 C.ar    1  UNL1        0.0016
      9 C         140.1348  141.5715  165.6987 C.ar    1  UNL1        0.0028
     10 C         139.3177  141.5944  164.4411 C.ar    1  UNL1        0.0310
     11 C         141.0281  142.7702  167.8236 C.ar    1  UNL1        0.0192
     12 C         142.4200  142.2113  167.8037 C.ar    1  UNL1        0.0031
     13 C         143.2371  142.1885  169.0614 C.ar    1  UNL1        0.0207
     14 C         142.6624  142.7245  170.3390 C.ar    1  UNL1        0.0989
     15 N         141.2705  143.2834  170.3589 N.ar    1  UNL1       -0.2423
     16 C         140.4534  143.3063  169.1012 C.ar    1  UNL1        0.0988
     17 C         138.3482  139.1742  161.4488 C.2     1  UNL1        0.2455
     18 N         138.7355  139.2563  160.0020 N.am    1  UNL1       -0.3252
     19 O         137.8846  137.8707  162.0283 O.2     1  UNL1       -0.2703
     20 H         139.0398  140.1119  159.6217 H       1  UNL1        0.1453
     21 H         138.6856  138.4546  159.4328 H       1  UNL1        0.1453
     22 N         139.9825  139.1285  163.9642 N.pl3   1  UNL1       -0.3292
     23 H         139.5798  138.4953  164.6014 H       1  UNL1        0.1471
     24 C         141.5793  137.5796  162.6221 C.3     1  UNL1        0.0278
     25 C         141.3371  138.8490  163.3837 C.3     1  UNL1        0.1117
     26 C         142.4495  139.8388  163.5648 C.ar    1  UNL1        0.0978
     27 C         143.4221  139.8730  164.7062 C.ar    1  UNL1        0.0383
     28 C         144.3583  141.0236  164.4832 C.ar    1  UNL1        0.0964
     29 N         143.9643  141.7005  163.2040 N.ar    1  UNL1       -0.2476
     30 C         144.6326  142.8992  162.5986 C.3     1  UNL1        0.1537
     31 N         142.7846  140.9683  162.6363 N.ar    1  UNL1       -0.1719
@<TRIPOS>BOND
     1    25    24    1
     2    25    22    1
     3    22     1    1
     4     1     2   ar
     5     2    17    1
     6    17    18   am
     7    17    19    2
     8     2     3   ar
     9     3     4   ar
    10     4     5   ar
    11     5     6   ar
    12     6     7   ar
    13     7     8   ar
    14     8    11    1
    15    11    12   ar
    16    12    13   ar
    17    13    14   ar
    18    14    15   ar
    19    15    16   ar
    20     8     9   ar
    21     9    10   ar
    22    25    26    1
    23    26    27   ar
    24    27    28   ar
    25    28    29   ar
    26    29    30    1
    27    29    31   ar
    28    10     1   ar
    29    31    26   ar
    30    10     5   ar
    31    16    11   ar
    32    22    23    1
    33    18    20    1
    34    18    21    1
