@<TRIPOS>MOLECULE
*****
 28 30 0 0 0
SMALL
GASTEIGER

@<TRIPOS>ATOM
      1 C         140.1291  139.2701  164.5666 C.2     1  UNL1        0.1156
      2 N         140.6417  139.1369  165.9700 N.2     1  UNL1       -0.1791
      3 N         140.5704  140.4870  166.6197 N.pl3   1  UNL1       -0.2088
      4 C         140.0137  141.4547  165.6178 C.3     1  UNL1        0.1260
      5 C         139.7409  140.7026  164.3490 C.3     1  UNL1        0.0787
      6 C         140.9834  140.8123  168.0246 C.ar    1  UNL1        0.0961
      7 C         142.3119  141.4581  168.2854 C.ar    1  UNL1        0.0143
      8 C         142.7247  141.7833  169.6902 C.ar    1  UNL1       -0.0204
      9 C         144.0533  142.4291  169.9510 C.3     1  UNL1        0.0311
     10 C         141.8091  141.4629  170.8343 C.ar    1  UNL1       -0.0019
     11 C         140.4806  140.8172  170.5735 C.ar    1  UNL1        0.0307
     12 C         140.0677  140.4919  169.1687 C.ar    1  UNL1        0.1550
     13 F         138.7392  139.8461  168.9078 F       1  UNL1       -0.2028
     14 C         139.2754  142.0361  163.8440 C.ar    1  UNL1       -0.0157
     15 C         138.1543  142.7512  164.5381 C.ar    1  UNL1       -0.0039
     16 C         137.6887  144.0847  164.0331 C.ar    1  UNL1       -0.0003
     17 C         138.3444  144.7031  162.8340 C.ar    1  UNL1       -0.0000
     18 C         139.4654  143.9881  162.1400 C.ar    1  UNL1       -0.0003
     19 C         139.9310  142.6545  162.6450 C.ar    1  UNL1       -0.0039
     20 C         141.1615  137.8945  162.6193 C.3     1  UNL1        0.0786
     21 C         140.0232  138.1649  163.5580 C.2     1  UNL1        0.1887
     22 O         138.7789  137.3301  163.4881 O.2     1  UNL1       -0.2900
     23 C         139.3708  140.2293  162.9746 C.3     1  UNL1        0.0130
     24 C         137.9376  140.2557  162.5329 C.3     1  UNL1        0.0181
     25 C         137.5655  139.7682  161.1639 C.3     1  UNL1        0.0722
     26 N         138.4722  140.0376  159.9998 N.3     1  UNL1       -0.2703
     27 C         139.3370  138.9407  159.4532 C.3     1  UNL1        0.0897
     28 C         138.5141  141.4039  159.3821 C.3     1  UNL1        0.0897
@<TRIPOS>BOND
     1    20    21    1
     2    21    22    2
     3    21     1    1
     4     1     2    2
     5     2     3    1
     6     3     6    1
     7     6     7   ar
     8     7     8   ar
     9     8     9    1
    10     8    10   ar
    11    10    11   ar
    12    11    12   ar
    13    12    13    1
    14     3     4    1
    15     4     5    1
    16     5    23    1
    17    23    24    1
    18    24    25    1
    19    25    26    1
    20    26    27    1
    21    26    28    1
    22     5    14    1
    23    14    15   ar
    24    15    16   ar
    25    16    17   ar
    26    17    18   ar
    27    18    19   ar
    28     5     1    1
    29    19    14   ar
    30    12     6   ar
@<TRIPOS>MOLECULE
*****
 28 30 0 0 0
SMALL
GASTEIGER

@<TRIPOS>ATOM
      1 C         143.3985  141.3691  163.3722 C.2     1  UNL1        0.1156
      2 N         143.8023  140.9023  164.7393 N.2     1  UNL1       -0.1791
      3 N         142.7386  141.3282  165.7075 N.pl3   1  UNL1       -0.2088
      4 C         141.6774  142.0581  164.9387 C.3     1  UNL1        0.1260
      5 C         142.0852  142.0834  163.4954 C.3     1  UNL1        0.0787
      6 C         142.7365  141.0694  167.1850 C.ar    1  UNL1        0.0961
      7 C         142.8796  142.2117  168.1466 C.ar    1  UNL1        0.0143
      8 C         142.8775  141.9530  169.6241 C.ar    1  UNL1       -0.0204
      9 C         143.0206  143.0952  170.5858 C.3     1  UNL1        0.0311
     10 C         142.7323  140.5520  170.1400 C.ar    1  UNL1       -0.0019
     11 C         142.5892  139.4097  169.1784 C.ar    1  UNL1        0.0307
     12 C         142.5913  139.6684  167.7009 C.ar    1  UNL1        0.1550
     13 F         142.4482  138.5262  166.7392 F       1  UNL1       -0.2028
     14 C         140.8011  142.8358  163.3087 C.ar    1  UNL1       -0.0157
     15 C         139.7524  142.3094  162.3743 C.ar    1  UNL1       -0.0039
     16 C         138.4683  143.0619  162.1876 C.ar    1  UNL1       -0.0003
     17 C         138.2329  144.3407  162.9352 C.ar    1  UNL1       -0.0000
     18 C         139.2815  144.8671  163.8696 C.ar    1  UNL1       -0.0003
     19 C         140.5657  144.1147  164.0564 C.ar    1  UNL1       -0.0039
     20 C         143.7352  140.1102  161.1245 C.3     1  UNL1        0.0786
     21 C         144.1721  141.1585  162.1044 C.2     1  UNL1        0.1887
     22 O         145.3826  141.9962  161.8166 O.2     1  UNL1       -0.2900
     23 C         142.2246  142.2660  162.0131 C.3     1  UNL1        0.0130
     24 C         142.4728  143.6322  161.4458 C.3     1  UNL1        0.0181
     25 C         142.3765  143.8587  159.9661 C.3     1  UNL1        0.0722
     26 N         141.5608  144.9993  159.4335 N.3     1  UNL1       -0.2703
     27 C         140.4196  145.5456  160.2391 C.3     1  UNL1        0.0897
     28 C         141.8863  145.5935  158.0952 C.3     1  UNL1        0.0897
@<TRIPOS>BOND
     1    20    21    1
     2    21    22    2
     3    21     1    1
     4     1     2    2
     5     2     3    1
     6     3     6    1
     7     6     7   ar
     8     7     8   ar
     9     8     9    1
    10     8    10   ar
    11    10    11   ar
    12    11    12   ar
    13    12    13    1
    14     3     4    1
    15     4     5    1
    16     5    23    1
    17    23    24    1
    18    24    25    1
    19    25    26    1
    20    26    27    1
    21    26    28    1
    22     5    14    1
    23    14    15   ar
    24    15    16   ar
    25    16    17   ar
    26    17    18   ar
    27    18    19   ar
    28     5     1    1
    29    19    14   ar
    30    12     6   ar
@<TRIPOS>MOLECULE
*****
 28 30 0 0 0
SMALL
GASTEIGER

@<TRIPOS>ATOM
      1 C         143.1337  143.0365  164.9247 C.2     1  UNL1        0.1156
      2 N         143.4631  142.5207  166.2942 N.2     1  UNL1       -0.1791
      3 N         142.1793  142.1260  166.9621 N.pl3   1  UNL1       -0.2088
      4 C         141.0564  142.3980  166.0055 C.3     1  UNL1        0.1260
      5 C         141.6462  142.9606  164.7463 C.3     1  UNL1        0.0787
      6 C         142.0424  141.5590  168.3441 C.ar    1  UNL1        0.0961
      7 C         142.5512  140.1800  168.6427 C.ar    1  UNL1        0.0143
      8 C         142.4144  139.6130  170.0247 C.ar    1  UNL1       -0.0204
      9 C         142.9232  138.2339  170.3234 C.3     1  UNL1        0.0311
     10 C         141.7687  140.4251  171.1080 C.ar    1  UNL1       -0.0019
     11 C         141.2599  141.8042  170.8093 C.ar    1  UNL1        0.0307
     12 C         141.3968  142.3712  169.4274 C.ar    1  UNL1        0.1550
     13 F         140.8879  143.7503  169.1287 F       1  UNL1       -0.2028
     14 C         140.2197  143.0043  164.2844 C.ar    1  UNL1       -0.0157
     15 C         139.5782  144.3195  163.9545 C.ar    1  UNL1       -0.0039
     16 C         138.1517  144.3632  163.4926 C.ar    1  UNL1       -0.0003
     17 C         137.3669  143.0917  163.3607 C.ar    1  UNL1       -0.0000
     18 C         138.0083  141.7767  163.6906 C.ar    1  UNL1       -0.0003
     19 C         139.4349  141.7329  164.1525 C.ar    1  UNL1       -0.0039
     20 C         145.1111  142.5972  163.2978 C.3     1  UNL1        0.0786
     21 C         144.1187  143.5398  163.9116 C.2     1  UNL1        0.1887
     22 O         144.1112  144.9856  163.5122 O.2     1  UNL1       -0.2900
     23 C         141.9378  143.5324  163.3906 C.3     1  UNL1        0.0130
     24 C         141.8215  142.6672  162.1708 C.3     1  UNL1        0.0181
     25 C         141.6768  143.2956  160.8165 C.3     1  UNL1        0.0722
     26 N         140.3795  143.9371  160.4220 N.3     1  UNL1       -0.2703
     27 C         139.1951  143.0838  160.0774 C.3     1  UNL1        0.0897
     28 C         140.2667  145.4321  160.3722 C.3     1  UNL1        0.0897
@<TRIPOS>BOND
     1    20    21    1
     2    21    22    2
     3    21     1    1
     4     1     2    2
     5     2     3    1
     6     3     6    1
     7     6     7   ar
     8     7     8   ar
     9     8     9    1
    10     8    10   ar
    11    10    11   ar
    12    11    12   ar
    13    12    13    1
    14     3     4    1
    15     4     5    1
    16     5    23    1
    17    23    24    1
    18    24    25    1
    19    25    26    1
    20    26    27    1
    21    26    28    1
    22     5    14    1
    23    14    15   ar
    24    15    16   ar
    25    16    17   ar
    26    17    18   ar
    27    18    19   ar
    28     5     1    1
    29    19    14   ar
    30    12     6   ar
@<TRIPOS>MOLECULE
*****
 28 30 0 0 0
SMALL
GASTEIGER

@<TRIPOS>ATOM
      1 C         141.0904  138.9888  164.8255 C.2     1  UNL1        0.1156
      2 N         140.7359  139.2371  166.2617 N.2     1  UNL1       -0.1791
      3 N         141.6009  140.3539  166.7663 N.pl3   1  UNL1       -0.2088
      4 C         142.4900  140.7958  165.6420 C.3     1  UNL1        0.1260
      5 C         142.1745  139.9522  164.4425 C.3     1  UNL1        0.0787
      6 C         141.5804  140.9279  168.1521 C.ar    1  UNL1        0.0961
      7 C         141.0053  142.2926  168.3901 C.ar    1  UNL1        0.0143
      8 C         140.9848  142.8666  169.7758 C.ar    1  UNL1       -0.0204
      9 C         140.4097  144.2314  170.0138 C.3     1  UNL1        0.0311
     10 C         141.5393  142.0757  170.9234 C.ar    1  UNL1       -0.0019
     11 C         142.1144  140.7110  170.6854 C.ar    1  UNL1        0.0307
     12 C         142.1349  140.1370  169.2997 C.ar    1  UNL1        0.1550
     13 F         142.7100  138.7722  169.0616 F       1  UNL1       -0.2028
     14 C         143.2392  140.7752  163.7798 C.ar    1  UNL1       -0.0157
     15 C         142.8892  141.6631  162.6226 C.ar    1  UNL1       -0.0039
     16 C         143.9539  142.4860  161.9598 C.ar    1  UNL1       -0.0003
     17 C         145.3685  142.4211  162.4543 C.ar    1  UNL1       -0.0000
     18 C         145.7185  141.5332  163.6114 C.ar    1  UNL1       -0.0003
     19 C         144.6539  140.7102  164.2742 C.ar    1  UNL1       -0.0039
     20 C         139.2943  138.3206  163.0713 C.3     1  UNL1        0.0786
     21 C         140.4698  137.9582  163.9296 C.2     1  UNL1        0.1887
     22 O         141.0248  136.5652  163.8921 O.2     1  UNL1       -0.2900
     23 C         142.0816  139.2806  163.1045 C.3     1  UNL1        0.0130
     24 C         143.2593  138.5283  162.5595 C.3     1  UNL1        0.0181
     25 C         143.1779  137.8853  161.2067 C.3     1  UNL1        0.0722
     26 N         142.8154  138.7078  160.0059 N.3     1  UNL1       -0.2703
     27 C         141.4990  138.4935  159.3196 C.3     1  UNL1        0.0897
     28 C         143.7694  139.7447  159.4913 C.3     1  UNL1        0.0897
@<TRIPOS>BOND
     1    20    21    1
     2    21    22    2
     3    21     1    1
     4     1     2    2
     5     2     3    1
     6     3     6    1
     7     6     7   ar
     8     7     8   ar
     9     8     9    1
    10     8    10   ar
    11    10    11   ar
    12    11    12   ar
    13    12    13    1
    14     3     4    1
    15     4     5    1
    16     5    23    1
    17    23    24    1
    18    24    25    1
    19    25    26    1
    20    26    27    1
    21    26    28    1
    22     5    14    1
    23    14    15   ar
    24    15    16   ar
    25    16    17   ar
    26    17    18   ar
    27    18    19   ar
    28     5     1    1
    29    19    14   ar
    30    12     6   ar
@<TRIPOS>MOLECULE
*****
 28 30 0 0 0
SMALL
GASTEIGER

@<TRIPOS>ATOM
      1 C         139.4194  141.2327  164.7924 C.2     1  UNL1        0.1156
      2 N         139.4688  140.6711  166.1824 N.2     1  UNL1       -0.1791
      3 N         140.6499  141.2733  166.8841 N.pl3   1  UNL1       -0.2088
      4 C         141.3306  142.2072  165.9277 C.3     1  UNL1        0.1260
      5 C         140.5701  142.1821  164.6350 C.3     1  UNL1        0.0787
      6 C         141.0756  140.9912  168.2945 C.ar    1  UNL1        0.0961
      7 C         141.7889  139.7127  168.6211 C.ar    1  UNL1        0.0143
      8 C         142.2146  139.4306  170.0315 C.ar    1  UNL1       -0.0204
      9 C         142.9278  138.1521  170.3582 C.3     1  UNL1        0.0311
     10 C         141.9270  140.4271  171.1152 C.ar    1  UNL1       -0.0019
     11 C         141.2138  141.7055  170.7886 C.ar    1  UNL1        0.0307
     12 C         140.7881  141.9876  169.3782 C.ar    1  UNL1        0.1550
     13 F         140.0748  143.2661  169.0515 F       1  UNL1       -0.2028
     14 C         141.6071  143.1693  164.1877 C.ar    1  UNL1       -0.0157
     15 C         141.2252  144.5991  163.9431 C.ar    1  UNL1       -0.0039
     16 C         142.2622  145.5864  163.4958 C.ar    1  UNL1       -0.0003
     17 C         143.6810  145.1438  163.2932 C.ar    1  UNL1       -0.0000
     18 C         144.0629  143.7141  163.5378 C.ar    1  UNL1       -0.0003
     19 C         143.0259  142.7267  163.9851 C.ar    1  UNL1       -0.0039
     20 C         137.2955  141.8729  163.4398 C.3     1  UNL1        0.0786
     21 C         138.3987  140.9030  163.7440 C.2     1  UNL1        0.1887
     22 O         138.4810  139.6033  162.9996 O.2     1  UNL1       -0.2900
     23 C         140.0264  142.3634  163.2488 C.3     1  UNL1        0.0130
     24 C         140.8067  141.8698  162.0667 C.3     1  UNL1        0.0181
     25 C         140.6353  142.5250  160.7282 C.3     1  UNL1        0.0722
     26 N         141.6145  143.5655  160.2717 N.3     1  UNL1       -0.2703
     27 C         143.0434  143.1890  160.0141 C.3     1  UNL1        0.0897
     28 C         141.1648  144.9826  160.0726 C.3     1  UNL1        0.0897
@<TRIPOS>BOND
     1    20    21    1
     2    21    22    2
     3    21     1    1
     4     1     2    2
     5     2     3    1
     6     3     6    1
     7     6     7   ar
     8     7     8   ar
     9     8     9    1
    10     8    10   ar
    11    10    11   ar
    12    11    12   ar
    13    12    13    1
    14     3     4    1
    15     4     5    1
    16     5    23    1
    17    23    24    1
    18    24    25    1
    19    25    26    1
    20    26    27    1
    21    26    28    1
    22     5    14    1
    23    14    15   ar
    24    15    16   ar
    25    16    17   ar
    26    17    18   ar
    27    18    19   ar
    28     5     1    1
    29    19    14   ar
    30    12     6   ar
@<TRIPOS>MOLECULE
*****
 28 30 0 0 0
SMALL
GASTEIGER

@<TRIPOS>ATOM
      1 C         140.0767  139.3573  164.6460 C.2     1  UNL1        0.1156
      2 N         140.5670  139.1957  166.0543 N.2     1  UNL1       -0.1791
      3 N         140.6033  140.5533  166.6912 N.pl3   1  UNL1       -0.2088
      4 C         140.1355  141.5540  165.6764 C.3     1  UNL1        0.1260
      5 C         139.8100  140.8148  164.4124 C.3     1  UNL1        0.0787
      6 C         141.0322  140.8570  168.0962 C.ar    1  UNL1        0.0961
      7 C         142.3579  141.5108  168.3509 C.ar    1  UNL1        0.0143
      8 C         142.7867  141.8144  169.7559 C.ar    1  UNL1       -0.0204
      9 C         144.1125  142.4683  170.0107 C.3     1  UNL1        0.0311
     10 C         141.8898  141.4642  170.9061 C.ar    1  UNL1       -0.0019
     11 C         140.5641  140.8103  170.6513 C.ar    1  UNL1        0.0307
     12 C         140.1353  140.5067  169.2464 C.ar    1  UNL1        0.1550
     13 F         138.8095  139.8528  168.9915 F       1  UNL1       -0.2028
     14 C         139.4600  142.1773  163.8918 C.ar    1  UNL1       -0.0157
     15 C         140.5080  143.2487  163.8301 C.ar    1  UNL1       -0.0039
     16 C         140.1580  144.6112  163.3095 C.ar    1  UNL1       -0.0003
     17 C         138.7599  144.9023  162.8506 C.ar    1  UNL1       -0.0000
     18 C         137.7119  143.8310  162.9122 C.ar    1  UNL1       -0.0003
     19 C         138.0619  142.4685  163.4329 C.ar    1  UNL1       -0.0039
     20 C         141.0679  137.4636  163.1689 C.3     1  UNL1        0.0786
     21 C         139.8866  138.2549  163.6467 C.2     1  UNL1        0.1887
     22 O         138.5150  137.9439  163.1251 O.2     1  UNL1       -0.2900
     23 C         139.4114  140.3605  163.0396 C.3     1  UNL1        0.0130
     24 C         140.0666  140.9609  161.8312 C.3     1  UNL1        0.0181
     25 C         141.4221  140.4857  161.3989 C.3     1  UNL1        0.0722
     26 N         142.6562  141.1134  161.9759 N.3     1  UNL1       -0.2703
     27 C         143.3068  140.5134  163.1869 C.3     1  UNL1        0.0897
     28 C         143.2397  142.3412  161.3419 C.3     1  UNL1        0.0897
@<TRIPOS>BOND
     1    20    21    1
     2    21    22    2
     3    21     1    1
     4     1     2    2
     5     2     3    1
     6     3     6    1
     7     6     7   ar
     8     7     8   ar
     9     8     9    1
    10     8    10   ar
    11    10    11   ar
    12    11    12   ar
    13    12    13    1
    14     3     4    1
    15     4     5    1
    16     5    23    1
    17    23    24    1
    18    24    25    1
    19    25    26    1
    20    26    27    1
    21    26    28    1
    22     5    14    1
    23    14    15   ar
    24    15    16   ar
    25    16    17   ar
    26    17    18   ar
    27    18    19   ar
    28     5     1    1
    29    19    14   ar
    30    12     6   ar
@<TRIPOS>MOLECULE
*****
 28 30 0 0 0
SMALL
GASTEIGER

@<TRIPOS>ATOM
      1 C         139.2298  141.7129  163.0064 C.2     1  UNL1        0.1156
      2 N         138.7550  141.6206  164.4262 N.2     1  UNL1       -0.1791
      3 N         139.9592  141.6440  165.3202 N.pl3   1  UNL1       -0.2088
      4 C         141.1784  141.7506  164.4529 C.3     1  UNL1        0.1260
      5 C         140.7276  141.7933  163.0229 C.3     1  UNL1        0.0787
      6 C         139.9466  141.5730  166.8185 C.ar    1  UNL1        0.0961
      7 C         140.3346  142.7737  167.6295 C.ar    1  UNL1        0.0143
      8 C         140.3219  142.7027  169.1277 C.ar    1  UNL1       -0.0204
      9 C         140.7100  143.9034  169.9388 C.3     1  UNL1        0.0311
     10 C         139.9212  141.4311  169.8150 C.ar    1  UNL1       -0.0019
     11 C         139.5331  140.2304  169.0040 C.ar    1  UNL1        0.0307
     12 C         139.5458  140.3014  167.5058 C.ar    1  UNL1        0.1550
     13 F         139.1578  139.1007  166.6947 F       1  UNL1       -0.2028
     14 C         142.1952  141.8866  162.7274 C.ar    1  UNL1       -0.0157
     15 C         142.7494  143.1097  162.0588 C.ar    1  UNL1       -0.0039
     16 C         144.2171  143.2030  161.7634 C.ar    1  UNL1       -0.0003
     17 C         145.1305  142.0733  162.1366 C.ar    1  UNL1       -0.0000
     18 C         144.5764  140.8503  162.8052 C.ar    1  UNL1       -0.0003
     19 C         143.1087  140.7569  163.1006 C.ar    1  UNL1       -0.0039
     20 C         137.6878  140.4607  161.3318 C.3     1  UNL1        0.0786
     21 C         138.3597  141.7231  161.7846 C.2     1  UNL1        0.1887
     22 O         138.1614  142.9956  161.0156 O.2     1  UNL1       -0.2900
     23 C         140.5836  141.8554  161.5311 C.3     1  UNL1        0.0130
     24 C         141.3850  140.9329  160.6612 C.3     1  UNL1        0.0181
     25 C         140.8615  139.5653  160.3358 C.3     1  UNL1        0.0722
     26 N         141.2778  138.3862  161.1643 N.3     1  UNL1       -0.2703
     27 C         140.3789  137.8798  162.2531 C.3     1  UNL1        0.0897
     28 C         142.5930  137.7135  160.9040 C.3     1  UNL1        0.0897
@<TRIPOS>BOND
     1    20    21    1
     2    21    22    2
     3    21     1    1
     4     1     2    2
     5     2     3    1
     6     3     6    1
     7     6     7   ar
     8     7     8   ar
     9     8     9    1
    10     8    10   ar
    11    10    11   ar
    12    11    12   ar
    13    12    13    1
    14     3     4    1
    15     4     5    1
    16     5    23    1
    17    23    24    1
    18    24    25    1
    19    25    26    1
    20    26    27    1
    21    26    28    1
    22     5    14    1
    23    14    15   ar
    24    15    16   ar
    25    16    17   ar
    26    17    18   ar
    27    18    19   ar
    28     5     1    1
    29    19    14   ar
    30    12     6   ar
@<TRIPOS>MOLECULE
*****
 28 30 0 0 0
SMALL
GASTEIGER

@<TRIPOS>ATOM
      1 C         139.2941  140.9825  163.9987 C.2     1  UNL1        0.1156
      2 N         139.2440  140.7976  165.4864 N.2     1  UNL1       -0.1791
      3 N         140.5730  141.2060  166.0493 N.pl3   1  UNL1       -0.2088
      4 C         141.4446  141.6433  164.9095 C.3     1  UNL1        0.1260
      5 C         140.6542  141.5052  163.6422 C.3     1  UNL1        0.0787
      6 C         140.9622  141.1813  167.4978 C.ar    1  UNL1        0.0961
      7 C         141.6021  139.9568  168.0818 C.ar    1  UNL1        0.0143
      8 C         141.9912  139.9322  169.5302 C.ar    1  UNL1       -0.0204
      9 C         142.6311  138.7077  170.1142 C.3     1  UNL1        0.0311
     10 C         141.7404  141.1322  170.3946 C.ar    1  UNL1       -0.0019
     11 C         141.1005  142.3567  169.8107 C.ar    1  UNL1        0.0307
     12 C         140.7114  142.3813  168.3623 C.ar    1  UNL1        0.1550
     13 F         140.0715  143.6058  167.7782 F       1  UNL1       -0.2028
     14 C         141.9036  142.0215  162.9923 C.ar    1  UNL1       -0.0157
     15 C         142.6801  141.1434  162.0563 C.ar    1  UNL1       -0.0039
     16 C         143.9295  141.6598  161.4064 C.ar    1  UNL1       -0.0003
     17 C         144.4024  143.0542  161.6925 C.ar    1  UNL1       -0.0000
     18 C         143.6260  143.9323  162.6284 C.ar    1  UNL1       -0.0003
     19 C         142.3765  143.4160  163.2784 C.ar    1  UNL1       -0.0039
     20 C         138.1693  139.4099  162.2632 C.3     1  UNL1        0.0786
     21 C         138.1799  140.6952  163.0365 C.2     1  UNL1        0.1887
     22 O         137.0761  141.6932  162.8475 O.2     1  UNL1       -0.2900
     23 C         140.1250  141.4750  162.2390 C.3     1  UNL1        0.0130
     24 C         140.2857  142.6731  161.3509 C.3     1  UNL1        0.0181
     25 C         139.1928  143.6973  161.2678 C.3     1  UNL1        0.0722
     26 N         139.1966  144.8751  162.1966 N.3     1  UNL1       -0.2703
     27 C         138.7105  144.7196  163.6070 C.3     1  UNL1        0.0897
     28 C         139.6864  146.2085  161.7148 C.3     1  UNL1        0.0897
@<TRIPOS>BOND
     1    20    21    1
     2    21    22    2
     3    21     1    1
     4     1     2    2
     5     2     3    1
     6     3     6    1
     7     6     7   ar
     8     7     8   ar
     9     8     9    1
    10     8    10   ar
    11    10    11   ar
    12    11    12   ar
    13    12    13    1
    14     3     4    1
    15     4     5    1
    16     5    23    1
    17    23    24    1
    18    24    25    1
    19    25    26    1
    20    26    27    1
    21    26    28    1
    22     5    14    1
    23    14    15   ar
    24    15    16   ar
    25    16    17   ar
    26    17    18   ar
    27    18    19   ar
    28     5     1    1
    29    19    14   ar
    30    12     6   ar
@<TRIPOS>MOLECULE
*****
 28 30 0 0 0
SMALL
GASTEIGER

@<TRIPOS>ATOM
      1 C         142.8568  141.0564  164.5678 C.2     1  UNL1        0.1156
      2 N         142.8721  140.6353  166.0074 N.2     1  UNL1       -0.1791
      3 N         141.6641  141.2227  166.6750 N.pl3   1  UNL1       -0.2088
      4 C         140.9022  142.0069  165.6481 C.3     1  UNL1        0.1260
      5 C         141.6394  141.9041  164.3458 C.3     1  UNL1        0.0787
      6 C         141.2846  141.0552  168.1166 C.ar    1  UNL1        0.0961
      7 C         139.9176  140.5552  168.4791 C.ar    1  UNL1        0.0143
      8 C         139.5382  140.3878  169.9206 C.ar    1  UNL1       -0.0204
      9 C         138.1712  139.8878  170.2831 C.3     1  UNL1        0.0311
     10 C         140.5257  140.7204  170.9996 C.ar    1  UNL1       -0.0019
     11 C         141.8926  141.2204  170.6371 C.ar    1  UNL1        0.0307
     12 C         142.2721  141.3878  169.1956 C.ar    1  UNL1        0.1550
     13 F         143.6391  141.8878  168.8330 F       1  UNL1       -0.2028
     14 C         140.5275  142.7681  163.8288 C.ar    1  UNL1       -0.0157
     15 C         140.2925  144.1244  164.4248 C.ar    1  UNL1       -0.0039
     16 C         139.1806  144.9884  163.9079 C.ar    1  UNL1       -0.0003
     17 C         138.3037  144.4961  162.7950 C.ar    1  UNL1       -0.0000
     18 C         138.5386  143.1398  162.1990 C.ar    1  UNL1       -0.0003
     19 C         139.6506  142.2758  162.7159 C.ar    1  UNL1       -0.0039
     20 C         145.2673  141.2560  163.6192 C.3     1  UNL1        0.0786
     21 C         143.8794  140.6936  163.5321 C.2     1  UNL1        0.1887
     22 O         143.5142  139.7684  162.4094 O.2     1  UNL1       -0.2900
     23 C         142.1441  141.9820  162.9354 C.3     1  UNL1        0.0130
     24 C         142.6469  143.2856  162.3897 C.3     1  UNL1        0.0181
     25 C         143.0889  143.3794  160.9593 C.3     1  UNL1        0.0722
     26 N         142.2632  144.1441  159.9677 N.3     1  UNL1       -0.2703
     27 C         141.1709  145.0547  160.4449 C.3     1  UNL1        0.0897
     28 C         142.5297  143.9983  158.4987 C.3     1  UNL1        0.0897
@<TRIPOS>BOND
     1    20    21    1
     2    21    22    2
     3    21     1    1
     4     1     2    2
     5     2     3    1
     6     3     6    1
     7     6     7   ar
     8     7     8   ar
     9     8     9    1
    10     8    10   ar
    11    10    11   ar
    12    11    12   ar
    13    12    13    1
    14     3     4    1
    15     4     5    1
    16     5    23    1
    17    23    24    1
    18    24    25    1
    19    25    26    1
    20    26    27    1
    21    26    28    1
    22     5    14    1
    23    14    15   ar
    24    15    16   ar
    25    16    17   ar
    26    17    18   ar
    27    18    19   ar
    28     5     1    1
    29    19    14   ar
    30    12     6   ar
