@<TRIPOS>MOLECULE
*****
 32 36 0 0 0
SMALL
GASTEIGER

@<TRIPOS>ATOM
      1 C         139.8349  138.4916  163.8258 C.2     1  UNL1        0.0033
      2 C         140.4351  139.3342  164.9122 C.2     1  UNL1        0.0642
      3 C         141.7059  140.0899  164.6596 C.3     1  UNL1        0.0383
      4 C         142.3060  140.9323  165.7458 C.3     1  UNL1        0.0559
      5 C         141.6353  141.0191  167.0847 C.3     1  UNL1        0.2062
      6 N         140.3645  140.2634  167.3373 N.pl3   1  UNL1       -0.1553
      7 C         139.7644  139.4209  166.2510 C.2     1  UNL1        0.3681
      8 N         138.5127  138.7932  166.7892 N.2     1  UNL1        0.1586
      9 O         138.3394  139.2478  168.2081 O.2     1  UNL1       -0.2387
     10 C         139.4838  140.1564  168.5468 C.3     1  UNL1        0.3293
     11 C         138.8131  140.2432  169.8857 C.3     1  UNL1        0.1043
     12 C         140.4880  141.0831  169.1655 C.ar    1  UNL1        0.0598
     13 C         140.2317  142.5609  169.1864 C.ar    1  UNL1        0.0055
     14 C         141.2359  143.4877  169.8051 C.ar    1  UNL1        0.0296
     15 C         142.4964  142.9366  170.4029 C.ar    1  UNL1        0.1401
     16 F         143.5006  143.8634  171.0215 F       1  UNL1       -0.2042
     17 C         142.7528  141.4589  170.3819 C.ar    1  UNL1        0.0296
     18 C         141.7486  140.5321  169.7633 C.ar    1  UNL1        0.0055
     19 C         140.4686  138.8121  159.9213 C.ar    1  UNL1        0.1547
     20 C         139.7979  138.8989  161.2602 C.ar    1  UNL1        0.0384
     21 C         140.5056  138.4049  162.4869 C.ar    1  UNL1        0.0030
     22 C         141.8841  137.8241  162.3749 C.ar    1  UNL1        0.0017
     23 C         142.5548  137.7373  161.0360 C.ar    1  UNL1        0.0206
     24 C         141.8470  138.2313  159.8092 C.ar    1  UNL1        0.0994
     25 N         142.5178  138.1446  158.4703 N.ar    1  UNL1       -0.2839
     26 C         143.1669  139.2789  157.7342 C.ar    1  UNL1        0.1826
     27 N         143.7075  138.7436  156.4414 N.ar    1  UNL1       -0.2280
     28 C         143.3924  137.2785  156.3785 C.ar    1  UNL1        0.0786
     29 C         143.7498  136.3470  155.2584 C.3     1  UNL1        0.0538
     30 C         142.6571  136.9082  157.6324 C.ar    1  UNL1        0.0963
     31 C         138.5426  140.1710  158.8285 C.3     1  UNL1        0.2525
     32 O         139.7608  139.3061  158.6944 O.3     1  UNL1       -0.4700
@<TRIPOS>BOND
     1    31    32    1
     2    32    19    1
     3    19    20   ar
     4    20    21   ar
     5    21     1    1
     6     1     2    2
     7     2     3    1
     8     3     4    1
     9     4     5    1
    10     5     6    1
    11     6     7    1
    12     7     8    2
    13     8     9    1
    14     9    10    1
    15    10    11    1
    16    10    12    1
    17    12    13   ar
    18    13    14   ar
    19    14    15   ar
    20    15    16    1
    21    15    17   ar
    22    17    18   ar
    23    21    22   ar
    24    22    23   ar
    25    23    24   ar
    26    24    25    1
    27    25    26   ar
    28    26    27   ar
    29    27    28   ar
    30    28    29    1
    31    28    30   ar
    32    24    19   ar
    33    30    25   ar
    34     7     2    1
    35    18    12   ar
    36    10     6    1
@<TRIPOS>MOLECULE
*****
 32 36 0 0 0
SMALL
GASTEIGER

@<TRIPOS>ATOM
      1 C         138.8640  138.6690  164.0982 C.2     1  UNL1        0.0033
      2 C         139.6214  139.4716  165.1142 C.2     1  UNL1        0.0642
      3 C         140.8278  140.2604  164.6991 C.3     1  UNL1        0.0383
      4 C         141.5851  141.0630  165.7150 C.3     1  UNL1        0.0559
      5 C         141.1361  141.0768  167.1462 C.3     1  UNL1        0.2062
      6 N         139.9297  140.2880  167.5614 N.pl3   1  UNL1       -0.1553
      7 C         139.1724  139.4854  166.5454 C.2     1  UNL1        0.3681
      8 N         138.0293  138.8118  167.2452 N.2     1  UNL1        0.1586
      9 O         138.0802  139.1981  168.6937 O.2     1  UNL1       -0.2387
     10 C         139.2548  140.1104  168.8891 C.3     1  UNL1        0.3293
     11 C         138.8057  140.1242  170.3202 C.3     1  UNL1        0.1043
     12 C         140.3354  141.0256  169.3837 C.ar    1  UNL1        0.0598
     13 C         140.0946  142.5048  169.4475 C.ar    1  UNL1        0.0055
     14 C         141.1753  143.4200  169.9421 C.ar    1  UNL1        0.0296
     15 C         142.4968  142.8560  170.3729 C.ar    1  UNL1        0.1401
     16 F         143.5774  143.7712  170.8675 F       1  UNL1       -0.2042
     17 C         142.7376  141.3769  170.3091 C.ar    1  UNL1        0.0296
     18 C         141.6569  140.4617  169.8145 C.ar    1  UNL1        0.0055
     19 C         141.1010  138.0695  160.8755 C.ar    1  UNL1        0.1547
     20 C         140.6520  138.0833  162.3066 C.ar    1  UNL1        0.0384
     21 C         139.3130  138.6552  162.6671 C.ar    1  UNL1        0.0030
     22 C         138.4230  139.2135  161.5964 C.ar    1  UNL1        0.0017
     23 C         138.8720  139.1997  160.1652 C.ar    1  UNL1        0.0206
     24 C         140.2111  138.6277  159.8048 C.ar    1  UNL1        0.0994
     25 N         140.6601  138.6139  158.3736 N.ar    1  UNL1       -0.2839
     26 C         141.7182  139.4912  157.7731 C.ar    1  UNL1        0.1826
     27 N         141.8419  139.1399  156.3200 N.ar    1  UNL1       -0.2280
     28 C         140.8602  138.0455  156.0226 C.ar    1  UNL1        0.0786
     29 C         140.6464  137.3910  154.6899 C.3     1  UNL1        0.0538
     30 C         140.1298  137.7204  157.2918 C.ar    1  UNL1        0.0963
     31 C         143.6698  137.9490  161.2457 C.3     1  UNL1        0.2525
     32 O         142.4400  137.4975  160.5150 O.3     1  UNL1       -0.4700
@<TRIPOS>BOND
     1    31    32    1
     2    32    19    1
     3    19    20   ar
     4    20    21   ar
     5    21     1    1
     6     1     2    2
     7     2     3    1
     8     3     4    1
     9     4     5    1
    10     5     6    1
    11     6     7    1
    12     7     8    2
    13     8     9    1
    14     9    10    1
    15    10    11    1
    16    10    12    1
    17    12    13   ar
    18    13    14   ar
    19    14    15   ar
    20    15    16    1
    21    15    17   ar
    22    17    18   ar
    23    21    22   ar
    24    22    23   ar
    25    23    24   ar
    26    24    25    1
    27    25    26   ar
    28    26    27   ar
    29    27    28   ar
    30    28    29    1
    31    28    30   ar
    32    24    19   ar
    33    30    25   ar
    34     7     2    1
    35    18    12   ar
    36    10     6    1
@<TRIPOS>MOLECULE
*****
 32 36 0 0 0
SMALL
GASTEIGER

@<TRIPOS>ATOM
      1 C         144.0165  139.2729  163.7727 C.2     1  UNL1        0.0033
      2 C         143.2574  139.9592  164.8695 C.2     1  UNL1        0.0642
      3 C         142.5160  141.2318  164.5858 C.3     1  UNL1        0.0383
      4 C         141.7570  141.9180  165.6825 C.3     1  UNL1        0.0559
      5 C         141.7394  141.3316  167.0630 C.3     1  UNL1        0.2062
      6 N         142.4808  140.0589  167.3467 N.pl3   1  UNL1       -0.1553
      7 C         143.2398  139.3727  166.2500 C.2     1  UNL1        0.3681
      8 N         143.8719  138.1397  166.8248 N.2     1  UNL1        0.1586
      9 O         143.5035  138.0640  168.2769 O.2     1  UNL1       -0.2387
     10 C         142.6438  139.2501  168.5994 C.3     1  UNL1        0.3293
     11 C         142.6262  138.6637  169.9799 C.3     1  UNL1        0.1043
     12 C         141.7804  140.3136  169.2106 C.ar    1  UNL1        0.0598
     13 C         140.2963  140.1152  169.3001 C.ar    1  UNL1        0.0055
     14 C         139.4329  141.1787  169.9112 C.ar    1  UNL1        0.0296
     15 C         140.0536  142.4406  170.4330 C.ar    1  UNL1        0.1401
     16 F         139.1902  143.5041  171.0442 F       1  UNL1       -0.2042
     17 C         141.5377  142.6391  170.3435 C.ar    1  UNL1        0.0296
     18 C         142.4011  141.5756  169.7324 C.ar    1  UNL1        0.0055
     19 C         143.7031  139.5911  159.8293 C.ar    1  UNL1        0.1547
     20 C         143.6856  139.0047  161.2098 C.ar    1  UNL1        0.0384
     21 C         144.0340  139.8593  162.3922 C.ar    1  UNL1        0.0030
     22 C         144.4001  141.3005  162.1941 C.ar    1  UNL1        0.0017
     23 C         144.4176  141.8869  160.8136 C.ar    1  UNL1        0.0206
     24 C         144.0692  141.0322  159.6312 C.ar    1  UNL1        0.0994
     25 N         144.0867  141.6187  158.2507 N.ar    1  UNL1       -0.2839
     26 C         142.9747  142.3931  157.6075 C.ar    1  UNL1        0.1826
     27 N         143.4201  142.7867  156.2303 N.ar    1  UNL1       -0.2280
     28 C         144.8074  142.2555  156.0223 C.ar    1  UNL1        0.0786
     29 C         145.6370  142.4177  154.7832 C.3     1  UNL1        0.0538
     30 C         145.2194  141.5336  157.2710 C.ar    1  UNL1        0.0963
     31 C         141.9281  138.6239  158.1971 C.3     1  UNL1        0.2525
     32 O         143.3547  138.7364  158.6468 O.3     1  UNL1       -0.4700
@<TRIPOS>BOND
     1    31    32    1
     2    32    19    1
     3    19    20   ar
     4    20    21   ar
     5    21     1    1
     6     1     2    2
     7     2     3    1
     8     3     4    1
     9     4     5    1
    10     5     6    1
    11     6     7    1
    12     7     8    2
    13     8     9    1
    14     9    10    1
    15    10    11    1
    16    10    12    1
    17    12    13   ar
    18    13    14   ar
    19    14    15   ar
    20    15    16    1
    21    15    17   ar
    22    17    18   ar
    23    21    22   ar
    24    22    23   ar
    25    23    24   ar
    26    24    25    1
    27    25    26   ar
    28    26    27   ar
    29    27    28   ar
    30    28    29    1
    31    28    30   ar
    32    24    19   ar
    33    30    25   ar
    34     7     2    1
    35    18    12   ar
    36    10     6    1
@<TRIPOS>MOLECULE
*****
 32 36 0 0 0
SMALL
GASTEIGER

@<TRIPOS>ATOM
      1 C         138.2010  139.6350  164.2888 C.2     1  UNL1        0.0033
      2 C         139.1984  140.2437  165.2295 C.2     1  UNL1        0.0642
      3 C         140.3233  141.0782  164.6928 C.3     1  UNL1        0.0383
      4 C         141.3206  141.6869  165.6334 C.3     1  UNL1        0.0559
      5 C         141.1931  141.4609  167.1108 C.3     1  UNL1        0.2062
      6 N         140.0682  140.6264  167.6476 N.pl3   1  UNL1       -0.1553
      7 C         139.0709  140.0178  166.7069 C.2     1  UNL1        0.3681
      8 N         138.0749  139.2473  167.5221 N.2     1  UNL1        0.1586
      9 O         138.4567  139.3799  168.9666 O.2     1  UNL1       -0.2387
     10 C         139.6886  140.2322  169.0442 C.3     1  UNL1        0.3293
     11 C         139.5610  140.0062  170.5215 C.3     1  UNL1        0.1043
     12 C         140.8939  141.0372  169.4305 C.ar    1  UNL1        0.0598
     13 C         140.7584  142.5056  169.7055 C.ar    1  UNL1        0.0055
     14 C         141.9636  143.3106  170.0919 C.ar    1  UNL1        0.0296
     15 C         143.3044  142.6473  170.2033 C.ar    1  UNL1        0.1401
     16 F         144.5096  143.4524  170.5897 F       1  UNL1       -0.2042
     17 C         143.4399  141.1790  169.9283 C.ar    1  UNL1        0.0296
     18 C         142.2346  140.3739  169.5420 C.ar    1  UNL1        0.0055
     19 C         138.3669  141.4769  160.7774 C.ar    1  UNL1        0.1547
     20 C         138.2393  141.2509  162.2548 C.ar    1  UNL1        0.0384
     21 C         138.3286  139.8609  162.8114 C.ar    1  UNL1        0.0030
     22 C         138.5454  138.6968  161.8907 C.ar    1  UNL1        0.0017
     23 C         138.6730  138.9227  160.4133 C.ar    1  UNL1        0.0206
     24 C         138.5837  140.3128  159.8567 C.ar    1  UNL1        0.0994
     25 N         138.7113  140.5387  158.3793 N.ar    1  UNL1       -0.2839
     26 C         139.9826  140.4822  157.5852 C.ar    1  UNL1        0.1826
     27 N         139.6470  140.7694  156.1517 N.ar    1  UNL1       -0.2280
     28 C         138.1682  141.0034  156.0598 C.ar    1  UNL1        0.0786
     29 C         137.4022  141.3237  154.8106 C.3     1  UNL1        0.0538
     30 C         137.5900  140.8608  157.4365 C.ar    1  UNL1        0.0963
     31 C         139.5283  143.6564  159.9707 C.3     1  UNL1        0.2525
     32 O         138.2776  142.8670  160.2208 O.3     1  UNL1       -0.4700
@<TRIPOS>BOND
     1    31    32    1
     2    32    19    1
     3    19    20   ar
     4    20    21   ar
     5    21     1    1
     6     1     2    2
     7     2     3    1
     8     3     4    1
     9     4     5    1
    10     5     6    1
    11     6     7    1
    12     7     8    2
    13     8     9    1
    14     9    10    1
    15    10    11    1
    16    10    12    1
    17    12    13   ar
    18    13    14   ar
    19    14    15   ar
    20    15    16    1
    21    15    17   ar
    22    17    18   ar
    23    21    22   ar
    24    22    23   ar
    25    23    24   ar
    26    24    25    1
    27    25    26   ar
    28    26    27   ar
    29    27    28   ar
    30    28    29    1
    31    28    30   ar
    32    24    19   ar
    33    30    25   ar
    34     7     2    1
    35    18    12   ar
    36    10     6    1
@<TRIPOS>MOLECULE
*****
 32 36 0 0 0
SMALL
GASTEIGER

@<TRIPOS>ATOM
      1 C         141.9406  138.5215  163.6484 C.2     1  UNL1        0.0033
      2 C         141.4562  139.3722  164.7850 C.2     1  UNL1        0.0642
      3 C         140.3678  140.3789  164.5575 C.3     1  UNL1        0.0383
      4 C         139.8835  141.2295  165.6941 C.3     1  UNL1        0.0559
      5 C         140.4877  141.0735  167.0581 C.3     1  UNL1        0.2062
      6 N         141.5761  140.0668  167.2856 N.pl3   1  UNL1       -0.1553
      7 C         142.0604  139.2161  166.1491 C.2     1  UNL1        0.3681
      8 N         143.1395  138.3147  166.6717 N.2     1  UNL1        0.1586
      9 O         143.3221  138.6083  168.1313 O.2     1  UNL1       -0.2387
     10 C         142.3559  139.6912  168.5107 C.3     1  UNL1        0.3293
     11 C         142.9600  139.5351  169.8748 C.3     1  UNL1        0.1043
     12 C         141.5160  140.7414  169.1753 C.ar    1  UNL1        0.0598
     13 C         140.1683  140.3845  169.7288 C.ar    1  UNL1        0.0055
     14 C         139.3283  141.4347  170.3934 C.ar    1  UNL1        0.0296
     15 C         139.8361  142.8418  170.5045 C.ar    1  UNL1        0.1401
     16 F         138.9962  143.8920  171.1691 F       1  UNL1       -0.2042
     17 C         141.1838  143.1986  169.9510 C.ar    1  UNL1        0.0296
     18 C         142.0238  142.1484  169.2864 C.ar    1  UNL1        0.0055
     19 C         141.4378  139.6472  159.8762 C.ar    1  UNL1        0.1547
     20 C         142.0419  139.4911  161.2402 C.ar    1  UNL1        0.0384
     21 C         141.3364  138.6775  162.2844 C.ar    1  UNL1        0.0030
     22 C         140.0267  138.0199  161.9645 C.ar    1  UNL1        0.0017
     23 C         139.4226  138.1760  160.6004 C.ar    1  UNL1        0.0206
     24 C         140.1281  138.9896  159.5563 C.ar    1  UNL1        0.0994
     25 N         139.5240  139.1457  158.1922 N.ar    1  UNL1       -0.2839
     26 C         139.6011  138.1485  157.0744 C.ar    1  UNL1        0.1826
     27 N         138.8614  138.7128  155.8978 N.ar    1  UNL1       -0.2280
     28 C         138.3271  140.0589  156.2885 C.ar    1  UNL1        0.0786
     29 C         137.5242  140.9763  155.4146 C.3     1  UNL1        0.0538
     30 C         138.7365  140.3264  157.7065 C.ar    1  UNL1        0.0963
     31 C         143.5637  140.1448  158.4680 C.3     1  UNL1        0.2525
     32 O         142.1433  140.4609  158.8320 O.3     1  UNL1       -0.4700
@<TRIPOS>BOND
     1    31    32    1
     2    32    19    1
     3    19    20   ar
     4    20    21   ar
     5    21     1    1
     6     1     2    2
     7     2     3    1
     8     3     4    1
     9     4     5    1
    10     5     6    1
    11     6     7    1
    12     7     8    2
    13     8     9    1
    14     9    10    1
    15    10    11    1
    16    10    12    1
    17    12    13   ar
    18    13    14   ar
    19    14    15   ar
    20    15    16    1
    21    15    17   ar
    22    17    18   ar
    23    21    22   ar
    24    22    23   ar
    25    23    24   ar
    26    24    25    1
    27    25    26   ar
    28    26    27   ar
    29    27    28   ar
    30    28    29    1
    31    28    30   ar
    32    24    19   ar
    33    30    25   ar
    34     7     2    1
    35    18    12   ar
    36    10     6    1
@<TRIPOS>MOLECULE
*****
 32 36 0 0 0
SMALL
GASTEIGER

@<TRIPOS>ATOM
      1 C         141.9516  141.4571  162.3062 C.2     1  UNL1        0.0033
      2 C         141.4888  141.8009  163.6911 C.2     1  UNL1        0.0642
      3 C         140.5404  142.9434  163.9030 C.3     1  UNL1        0.0383
      4 C         140.0777  143.2871  165.2878 C.3     1  UNL1        0.0559
      5 C         140.5635  142.4883  166.4607 C.3     1  UNL1        0.2062
      6 N         141.5119  141.3457  166.2489 N.pl3   1  UNL1       -0.1553
      7 C         141.9746  141.0020  164.8640 C.2     1  UNL1        0.3681
      8 N         142.9051  139.8297  164.9638 N.2     1  UNL1        0.1586
      9 O         143.0175  139.4489  166.4102 O.2     1  UNL1       -0.2387
     10 C         142.1565  140.3858  167.2045 C.3     1  UNL1        0.3293
     11 C         142.6422  139.5869  168.3774 C.3     1  UNL1        0.1043
     12 C         141.3970  141.1557  168.2439 C.ar    1  UNL1        0.0598
     13 C         140.0929  140.6280  168.7643 C.ar    1  UNL1        0.0055
     14 C         139.3334  141.3979  169.8038 C.ar    1  UNL1        0.0296
     15 C         139.8780  142.6956  170.3228 C.ar    1  UNL1        0.1401
     16 F         139.1185  143.4655  171.3622 F       1  UNL1       -0.2042
     17 C         141.1821  143.2234  169.8024 C.ar    1  UNL1        0.0296
     18 C         141.9416  142.4534  168.7629 C.ar    1  UNL1        0.0055
     19 C         139.6328  142.7704  159.3654 C.ar    1  UNL1        0.1547
     20 C         140.1185  141.9716  160.5384 C.ar    1  UNL1        0.0384
     21 C         141.4658  142.2560  161.1333 C.ar    1  UNL1        0.0030
     22 C         142.3274  143.3394  160.5552 C.ar    1  UNL1        0.0017
     23 C         141.8416  144.1383  159.3823 C.ar    1  UNL1        0.0206
     24 C         140.4943  143.8538  158.7874 C.ar    1  UNL1        0.0994
     25 N         140.0085  144.6527  157.6144 N.ar    1  UNL1       -0.2839
     26 C         139.5568  144.0978  156.2960 C.ar    1  UNL1        0.1826
     27 N         139.1583  145.2489  155.4207 N.ar    1  UNL1       -0.2280
     28 C         139.3637  146.5152  156.1981 C.ar    1  UNL1        0.0786
     29 C         139.0914  147.9058  155.7061 C.3     1  UNL1        0.0538
     30 C         139.8891  146.1467  157.5539 C.ar    1  UNL1        0.0963
     31 C         138.0169  141.1606  158.1215 C.3     1  UNL1        0.2525
     32 O         138.2854  142.4859  158.7705 O.3     1  UNL1       -0.4700
@<TRIPOS>BOND
     1    31    32    1
     2    32    19    1
     3    19    20   ar
     4    20    21   ar
     5    21     1    1
     6     1     2    2
     7     2     3    1
     8     3     4    1
     9     4     5    1
    10     5     6    1
    11     6     7    1
    12     7     8    2
    13     8     9    1
    14     9    10    1
    15    10    11    1
    16    10    12    1
    17    12    13   ar
    18    13    14   ar
    19    14    15   ar
    20    15    16    1
    21    15    17   ar
    22    17    18   ar
    23    21    22   ar
    24    22    23   ar
    25    23    24   ar
    26    24    25    1
    27    25    26   ar
    28    26    27   ar
    29    27    28   ar
    30    28    29    1
    31    28    30   ar
    32    24    19   ar
    33    30    25   ar
    34     7     2    1
    35    18    12   ar
    36    10     6    1
@<TRIPOS>MOLECULE
*****
 32 36 0 0 0
SMALL
GASTEIGER

@<TRIPOS>ATOM
      1 C         138.7555  140.3605  163.5960 C.2     1  UNL1        0.0033
      2 C         139.5500  140.9557  164.7206 C.2     1  UNL1        0.0642
      3 C         140.5601  142.0284  164.4397 C.3     1  UNL1        0.0383
      4 C         141.3546  142.6235  165.5642 C.3     1  UNL1        0.0559
      5 C         141.1390  142.1459  166.9697 C.3     1  UNL1        0.2062
      6 N         140.1289  141.0732  167.2506 N.pl3   1  UNL1       -0.1553
      7 C         139.3344  140.4781  166.1261 C.2     1  UNL1        0.3681
      8 N         138.4159  139.4428  166.7046 N.2     1  UNL1        0.1586
      9 O         138.6427  139.3982  168.1866 O.2     1  UNL1       -0.2387
     10 C         139.7014  140.4058  168.5241 C.3     1  UNL1        0.3293
     11 C         139.4858  139.9281  169.9296 C.3     1  UNL1        0.1043
     12 C         140.7150  141.3135  169.1554 C.ar    1  UNL1        0.0598
     13 C         140.3248  142.7020  169.5676 C.ar    1  UNL1        0.0055
     14 C         141.3385  143.6097  170.1989 C.ar    1  UNL1        0.0296
     15 C         142.7423  143.1290  170.4180 C.ar    1  UNL1        0.1401
     16 F         143.7560  144.0368  171.0494 F       1  UNL1       -0.2042
     17 C         143.1326  141.7406  170.0059 C.ar    1  UNL1        0.0296
     18 C         142.1189  140.8328  169.3745 C.ar    1  UNL1        0.0055
     19 C         140.1978  140.6374  159.9092 C.ar    1  UNL1        0.1547
     20 C         139.9822  140.1598  161.3147 C.ar    1  UNL1        0.0384
     21 C         138.9711  140.8382  162.1906 C.ar    1  UNL1        0.0030
     22 C         138.1754  141.9943  161.6610 C.ar    1  UNL1        0.0017
     23 C         138.3910  142.4719  160.2555 C.ar    1  UNL1        0.0206
     24 C         139.4023  141.7934  159.3796 C.ar    1  UNL1        0.0994
     25 N         139.6178  142.2711  157.9741 N.ar    1  UNL1       -0.2839
     26 C         139.0622  141.6383  156.7328 C.ar    1  UNL1        0.1826
     27 N         139.5278  142.4415  155.5547 N.ar    1  UNL1       -0.2280
     28 C         140.3714  143.5707  156.0678 C.ar    1  UNL1        0.0786
     29 C         141.0416  144.6209  155.2324 C.3     1  UNL1        0.0538
     30 C         140.4270  143.4654  157.5631 C.ar    1  UNL1        0.0963
     31 C         142.6328  140.4308  159.0270 C.3     1  UNL1        0.2525
     32 O         141.2091  139.9589  159.0333 O.3     1  UNL1       -0.4700
@<TRIPOS>BOND
     1    31    32    1
     2    32    19    1
     3    19    20   ar
     4    20    21   ar
     5    21     1    1
     6     1     2    2
     7     2     3    1
     8     3     4    1
     9     4     5    1
    10     5     6    1
    11     6     7    1
    12     7     8    2
    13     8     9    1
    14     9    10    1
    15    10    11    1
    16    10    12    1
    17    12    13   ar
    18    13    14   ar
    19    14    15   ar
    20    15    16    1
    21    15    17   ar
    22    17    18   ar
    23    21    22   ar
    24    22    23   ar
    25    23    24   ar
    26    24    25    1
    27    25    26   ar
    28    26    27   ar
    29    27    28   ar
    30    28    29    1
    31    28    30   ar
    32    24    19   ar
    33    30    25   ar
    34     7     2    1
    35    18    12   ar
    36    10     6    1
@<TRIPOS>MOLECULE
*****
 32 36 0 0 0
SMALL
GASTEIGER

@<TRIPOS>ATOM
      1 C         140.8535  140.8633  159.2582 C.2     1  UNL1        0.0033
      2 C         140.5245  140.8022  160.7205 C.2     1  UNL1        0.0642
      3 C         139.9782  142.0128  161.4176 C.3     1  UNL1        0.0383
      4 C         139.6492  141.9516  162.8797 C.3     1  UNL1        0.0559
      5 C         139.8665  140.6798  163.6448 C.3     1  UNL1        0.2062
      6 N         140.4127  139.4692  162.9477 N.pl3   1  UNL1       -0.1553
      7 C         140.7417  139.5304  161.4856 C.2     1  UNL1        0.3681
      8 N         141.2627  138.1862  161.0710 N.2     1  UNL1        0.1586
      9 O         141.2556  137.2943  162.2770 O.2     1  UNL1       -0.2387
     10 C         140.7303  138.0872  163.4368 C.3     1  UNL1        0.3293
     11 C         140.9475  136.8154  164.2019 C.3     1  UNL1        0.1043
     12 C         140.2504  138.6143  164.7567 C.ar    1  UNL1        0.0598
     13 C         141.1994  139.3385  165.6649 C.ar    1  UNL1        0.0055
     14 C         140.7196  139.8656  166.9848 C.ar    1  UNL1        0.0296
     15 C         139.2907  139.6685  167.3964 C.ar    1  UNL1        0.1401
     16 F         138.8108  140.1955  168.7162 F       1  UNL1       -0.2042
     17 C         138.3417  138.9443  166.4881 C.ar    1  UNL1        0.0296
     18 C         138.8216  138.4172  165.1683 C.ar    1  UNL1        0.0055
     19 C         139.1601  143.5997  156.9356 C.ar    1  UNL1        0.1547
     20 C         139.3774  142.3279  157.7007 C.ar    1  UNL1        0.0384
     21 C         140.6363  142.1351  158.4932 C.ar    1  UNL1        0.0030
     22 C         141.6780  143.2141  158.5206 C.ar    1  UNL1        0.0017
     23 C         141.4607  144.4859  157.7555 C.ar    1  UNL1        0.0206
     24 C         140.2018  144.6787  156.9630 C.ar    1  UNL1        0.0994
     25 N         139.9845  145.9505  156.1979 N.ar    1  UNL1       -0.2839
     26 C         140.5064  146.2534  154.8247 C.ar    1  UNL1        0.1826
     27 N         140.0517  147.6328  154.4498 N.ar    1  UNL1       -0.2280
     28 C         139.2487  148.1824  155.5913 C.ar    1  UNL1        0.0786
     29 C         138.6010  149.5343  155.6434 C.3     1  UNL1        0.0538
     30 C         139.2072  147.1426  156.6717 C.ar    1  UNL1        0.0963
     31 C         137.8854  143.4880  154.6745 C.3     1  UNL1        0.2525
     32 O         137.9012  143.7925  156.1431 O.3     1  UNL1       -0.4700
@<TRIPOS>BOND
     1    31    32    1
     2    32    19    1
     3    19    20   ar
     4    20    21   ar
     5    21     1    1
     6     1     2    2
     7     2     3    1
     8     3     4    1
     9     4     5    1
    10     5     6    1
    11     6     7    1
    12     7     8    2
    13     8     9    1
    14     9    10    1
    15    10    11    1
    16    10    12    1
    17    12    13   ar
    18    13    14   ar
    19    14    15   ar
    20    15    16    1
    21    15    17   ar
    22    17    18   ar
    23    21    22   ar
    24    22    23   ar
    25    23    24   ar
    26    24    25    1
    27    25    26   ar
    28    26    27   ar
    29    27    28   ar
    30    28    29    1
    31    28    30   ar
    32    24    19   ar
    33    30    25   ar
    34     7     2    1
    35    18    12   ar
    36    10     6    1
@<TRIPOS>MOLECULE
*****
 32 36 0 0 0
SMALL
GASTEIGER

@<TRIPOS>ATOM
      1 C         141.0521  139.7539  162.8226 C.2     1  UNL1        0.0033
      2 C         141.4677  140.4143  164.1037 C.2     1  UNL1        0.0642
      3 C         142.6601  141.3241  164.1259 C.3     1  UNL1        0.0383
      4 C         143.0757  141.9845  165.4070 C.3     1  UNL1        0.0559
      5 C         142.2989  141.7351  166.6657 C.3     1  UNL1        0.2062
      6 N         141.1066  140.8253  166.6435 N.pl3   1  UNL1       -0.1553
      7 C         140.6910  140.1649  165.3624 C.2     1  UNL1        0.3681
      8 N         139.4813  139.3242  165.6454 N.2     1  UNL1        0.1586
      9 O         139.1493  139.4651  167.1014 O.2     1  UNL1       -0.2387
     10 C         140.1538  140.3928  167.7182 C.3     1  UNL1        0.3293
     11 C         139.3771  140.1434  168.9770 C.3     1  UNL1        0.1043
     12 C         140.9959  141.2684  168.5982 C.ar    1  UNL1        0.0598
     13 C         142.2937  140.7538  169.1467 C.ar    1  UNL1        0.0055
     14 C         143.1358  141.6294  170.0267 C.ar    1  UNL1        0.0296
     15 C         142.6801  143.0195  170.3581 C.ar    1  UNL1        0.1401
     16 F         143.5221  143.8951  171.2381 F       1  UNL1       -0.2042
     17 C         141.3823  143.5341  169.8096 C.ar    1  UNL1        0.0296
     18 C         140.5402  142.6585  168.9296 C.ar    1  UNL1        0.0055
     19 C         142.1825  141.3435  159.3664 C.ar    1  UNL1        0.1547
     20 C         141.4058  141.0941  160.6251 C.ar    1  UNL1        0.0384
     21 C         141.8288  140.0033  161.5638 C.ar    1  UNL1        0.0030
     22 C         143.0287  139.1618  161.2438 C.ar    1  UNL1        0.0017
     23 C         143.8055  139.4113  159.9850 C.ar    1  UNL1        0.0206
     24 C         143.3823  140.5021  159.0463 C.ar    1  UNL1        0.0994
     25 N         144.1591  140.7515  157.7875 N.ar    1  UNL1       -0.2839
     26 C         144.0658  139.9531  156.5211 C.ar    1  UNL1        0.1826
     27 N         145.0145  140.5513  155.5251 N.ar    1  UNL1       -0.2280
     28 C         145.6942  141.7194  156.1759 C.ar    1  UNL1        0.0786
     29 C         146.7221  142.6078  155.5402 C.3     1  UNL1        0.0538
     30 C         145.1655  141.8431  157.5742 C.ar    1  UNL1        0.0963
     31 C         140.3614  142.4558  157.8843 C.3     1  UNL1        0.2525
     32 O         141.7594  142.4343  158.4277 O.3     1  UNL1       -0.4700
@<TRIPOS>BOND
     1    31    32    1
     2    32    19    1
     3    19    20   ar
     4    20    21   ar
     5    21     1    1
     6     1     2    2
     7     2     3    1
     8     3     4    1
     9     4     5    1
    10     5     6    1
    11     6     7    1
    12     7     8    2
    13     8     9    1
    14     9    10    1
    15    10    11    1
    16    10    12    1
    17    12    13   ar
    18    13    14   ar
    19    14    15   ar
    20    15    16    1
    21    15    17   ar
    22    17    18   ar
    23    21    22   ar
    24    22    23   ar
    25    23    24   ar
    26    24    25    1
    27    25    26   ar
    28    26    27   ar
    29    27    28   ar
    30    28    29    1
    31    28    30   ar
    32    24    19   ar
    33    30    25   ar
    34     7     2    1
    35    18    12   ar
    36    10     6    1
