@<TRIPOS>MOLECULE
*****
 34 38 0 0 0
SMALL
GASTEIGER

@<TRIPOS>ATOM
      1 N         140.5881  141.2979  168.8282 N.3     1  UNL1       -0.2752
      2 C         141.3676  142.5237  169.2020 C.3     1  UNL1        0.0578
      3 C         141.6986  142.4351  170.6624 C.3     1  UNL1        0.0173
      4 C         141.1236  141.1546  171.1911 C.3     1  UNL1        0.0173
      5 C         140.4373  140.4517  170.0576 C.3     1  UNL1        0.0578
      6 C         139.8369  139.9828  168.7542 C.3     1  UNL1        0.0203
      7 C         140.0674  140.9303  167.6144 C.3     1  UNL1        0.0250
      8 C         140.8328  142.2008  167.8383 C.3     1  UNL1        0.0203
      9 C         139.5325  140.6073  166.2507 C.ar    1  UNL1       -0.0224
     10 C         139.4079  139.1780  165.8131 C.ar    1  UNL1       -0.0046
     11 C         138.8730  138.8551  164.4495 C.ar    1  UNL1       -0.0046
     12 C         138.4628  139.9614  163.5234 C.ar    1  UNL1       -0.0228
     13 C         138.5875  141.3907  163.9610 C.ar    1  UNL1       -0.0046
     14 C         139.1223  141.7137  165.3246 C.ar    1  UNL1       -0.0046
     15 C         137.9280  139.6384  162.1598 C.3     1  UNL1        0.0189
     16 C         138.0688  138.1485  162.0581 C.3     1  UNL1        0.0044
     17 C         137.6494  141.0933  161.9244 C.3     1  UNL1        0.0044
     18 C         137.3415  139.6771  160.7796 C.3     1  UNL1        0.0044
     19 C         140.0532  140.9750  167.4645 C.3     1  UNL1        0.0729
     20 C         140.8804  140.1712  166.5055 C.3     1  UNL1        0.0294
     21 C         142.3758  140.2858  166.5263 C.3     1  UNL1        0.0666
     22 S         143.1127  140.7112  165.2910 S.3     1  UNL1       -0.0756
     23 C         142.0171  143.6615  163.0193 C.ar    1  UNL1        0.2029
     24 N         142.5300  144.3967  164.2219 N.ar    1  UNL1       -0.1250
     25 N         143.0029  143.3810  165.2193 N.ar    1  UNL1       -0.1220
     26 C         142.7822  142.0181  164.6331 C.ar    1  UNL1        0.1933
     27 N         142.1729  142.1914  163.2734 N.ar    1  UNL1       -0.2860
     28 C         141.6842  141.3668  162.1196 C.3     1  UNL1        0.1341
     29 C         138.9959  144.8484  162.6832 C.3     1  UNL1        0.0556
     30 C         140.0595  144.8321  161.6257 C.ar    1  UNL1        0.1001
     31 N         139.9211  145.3586  160.2279 N.ar    1  UNL1       -0.2085
     32 C         141.2242  145.1384  159.5185 C.ar    1  UNL1        0.2849
     33 O         142.1680  144.4759  160.4779 O.2     1  UNL1       -0.4283
     34 C         141.4482  144.2866  161.7801 C.ar    1  UNL1        0.1964
@<TRIPOS>BOND
     1    29    30    1
     2    30    31   ar
     3    31    32   ar
     4    32    33   ar
     5    33    34   ar
     6    34    23    1
     7    23    24   ar
     8    24    25   ar
     9    25    26   ar
    10    26    22    1
    11    22    21    1
    12    21    20    1
    13    20    19    1
    14    19     1    1
    15     1     2    1
    16     2     3    1
    17     3     4    1
    18     5     4    1
    19     5     6    1
    20     6     7    1
    21     7     9    1
    22     9    10   ar
    23    10    11   ar
    24    11    12   ar
    25    12    15    1
    26    15    16    1
    27    15    17    1
    28    15    18    1
    29    12    13   ar
    30    13    14   ar
    31     7     8    1
    32    26    27   ar
    33    27    28    1
    34    34    30   ar
    35    27    23   ar
    36     5     1    1
    37    14     9   ar
    38     8     2    1
@<TRIPOS>MOLECULE
*****
 34 38 0 0 0
SMALL
GASTEIGER

@<TRIPOS>ATOM
      1 N         139.3351  139.9760  162.9709 N.3     1  UNL1       -0.2752
      2 C         138.1123  139.2970  162.4289 C.3     1  UNL1        0.0578
      3 C         138.2981  139.1176  160.9513 C.3     1  UNL1        0.0173
      4 C         139.6358  139.6858  160.5801 C.3     1  UNL1        0.0173
      5 C         140.2767  140.2163  161.8282 C.3     1  UNL1        0.0578
      6 C         140.6684  140.6543  163.2189 C.3     1  UNL1        0.0203
      7 C         139.6295  140.3488  164.2569 C.3     1  UNL1        0.0250
      8 C         138.3515  139.6702  163.8619 C.3     1  UNL1        0.0203
      9 C         139.8688  140.7220  165.6900 C.ar    1  UNL1       -0.0224
     10 C         140.7284  141.9052  166.0234 C.ar    1  UNL1       -0.0046
     11 C         140.9676  142.2784  167.4563 C.ar    1  UNL1       -0.0046
     12 C         140.3473  141.4684  168.5559 C.ar    1  UNL1       -0.0228
     13 C         139.4876  140.2852  168.2225 C.ar    1  UNL1       -0.0046
     14 C         139.2484  139.9121  166.7896 C.ar    1  UNL1       -0.0046
     15 C         140.5865  141.8417  169.9889 C.3     1  UNL1        0.0189
     16 C         140.4351  143.3339  170.0055 C.3     1  UNL1        0.0044
     17 C         140.8023  140.3968  170.3292 C.3     1  UNL1        0.0044
     18 C         140.8709  141.8541  171.4617 C.3     1  UNL1        0.0044
     19 C         139.5743  140.3492  164.4039 C.3     1  UNL1        0.0729
     20 C         139.3495  141.7607  164.8589 C.3     1  UNL1        0.0294
     21 C         138.0168  142.4147  164.6441 C.3     1  UNL1        0.0666
     22 S         137.9111  143.6352  163.7785 S.3     1  UNL1       -0.0756
     23 C         139.6573  143.9901  160.3304 C.ar    1  UNL1        0.2029
     24 N         138.5462  143.0396  159.9960 N.ar    1  UNL1       -0.1250
     25 N         137.7568  142.7909  161.2470 N.ar    1  UNL1       -0.1220
     26 C         138.3801  143.5878  162.3545 C.ar    1  UNL1        0.1933
     27 N         139.5547  144.3289  161.7879 N.ar    1  UNL1       -0.2860
     28 C         140.6304  145.2805  162.2208 C.3     1  UNL1        0.1341
     29 C         142.5926  142.6764  159.7756 C.3     1  UNL1        0.0556
     30 C         142.0391  143.9067  159.1198 C.ar    1  UNL1        0.1001
     31 N         142.7376  144.7490  158.0939 N.ar    1  UNL1       -0.2085
     32 C         141.8201  145.8735  157.7149 C.ar    1  UNL1        0.2849
     33 O         140.5545  145.7261  158.5065 O.2     1  UNL1       -0.4283
     34 C         140.6899  144.5105  159.3748 C.ar    1  UNL1        0.1964
@<TRIPOS>BOND
     1    29    30    1
     2    30    31   ar
     3    31    32   ar
     4    32    33   ar
     5    33    34   ar
     6    34    23    1
     7    23    24   ar
     8    24    25   ar
     9    25    26   ar
    10    26    22    1
    11    22    21    1
    12    21    20    1
    13    20    19    1
    14    19     1    1
    15     1     2    1
    16     2     3    1
    17     3     4    1
    18     5     4    1
    19     5     6    1
    20     6     7    1
    21     7     9    1
    22     9    10   ar
    23    10    11   ar
    24    11    12   ar
    25    12    15    1
    26    15    16    1
    27    15    17    1
    28    15    18    1
    29    12    13   ar
    30    13    14   ar
    31     7     8    1
    32    26    27   ar
    33    27    28    1
    34    34    30   ar
    35    27    23   ar
    36     5     1    1
    37    14     9   ar
    38     8     2    1
@<TRIPOS>MOLECULE
*****
 34 38 0 0 0
SMALL
GASTEIGER

@<TRIPOS>ATOM
      1 N         138.4496  139.4922  163.4200 N.3     1  UNL1       -0.2752
      2 C         138.5725  138.0909  162.8989 C.3     1  UNL1        0.0578
      3 C         138.0013  138.0602  161.5123 C.3     1  UNL1        0.0173
      4 C         137.5254  139.4425  161.1763 C.3     1  UNL1        0.0173
      5 C         137.8025  140.3275  162.3554 C.3     1  UNL1        0.0578
      6 C         138.1941  140.9664  163.6659 C.3     1  UNL1        0.0203
      7 C         138.8292  140.0100  164.6313 C.3     1  UNL1        0.0250
      8 C         139.0184  138.5723  164.2478 C.3     1  UNL1        0.0203
      9 C         139.2752  140.4914  165.9802 C.ar    1  UNL1       -0.0224
     10 C         139.1076  139.6118  167.1836 C.ar    1  UNL1       -0.0046
     11 C         139.5535  140.0932  168.5323 C.ar    1  UNL1       -0.0046
     12 C         140.1670  141.4542  168.6778 C.ar    1  UNL1       -0.0228
     13 C         140.3346  142.3339  167.4745 C.ar    1  UNL1       -0.0046
     14 C         139.8887  141.8525  166.1257 C.ar    1  UNL1       -0.0046
     15 C         140.6129  141.9355  170.0267 C.3     1  UNL1        0.0189
     16 C         140.7578  143.4184  169.8534 C.3     1  UNL1        0.0044
     17 C         140.5748  140.5273  170.5418 C.3     1  UNL1        0.0044
     18 C         141.0364  142.0617  171.4602 C.3     1  UNL1        0.0044
     19 C         138.8955  139.9735  164.7689 C.3     1  UNL1        0.0729
     20 C         140.2780  140.5273  164.9483 C.3     1  UNL1        0.0294
     21 C         141.4690  139.7266  164.5121 C.3     1  UNL1        0.0666
     22 S         142.7324  140.4239  164.1027 S.3     1  UNL1       -0.0756
     23 C         142.1165  143.6510  162.0361 C.ar    1  UNL1        0.2029
     24 N         143.0331  144.1634  163.1071 N.ar    1  UNL1       -0.1250
     25 N         143.3755  143.0169  164.0117 N.ar    1  UNL1       -0.1220
     26 C         142.6704  141.7959  163.4997 C.ar    1  UNL1        0.1933
     27 N         141.8923  142.1879  162.2786 N.ar    1  UNL1       -0.2860
     28 C         140.9822  141.5811  161.2522 C.3     1  UNL1        0.1341
     29 C         139.3470  145.3722  162.1669 C.3     1  UNL1        0.0556
     30 C         140.2545  145.2510  160.9787 C.ar    1  UNL1        0.1001
     31 N         140.0483  145.8997  159.6420 N.ar    1  UNL1       -0.2085
     32 C         141.1938  145.5095  158.7557 C.ar    1  UNL1        0.2849
     33 O         142.1080  144.6196  159.5447 O.2     1  UNL1       -0.4283
     34 C         141.5275  144.4599  160.9186 C.ar    1  UNL1        0.1964
@<TRIPOS>BOND
     1    29    30    1
     2    30    31   ar
     3    31    32   ar
     4    32    33   ar
     5    33    34   ar
     6    34    23    1
     7    23    24   ar
     8    24    25   ar
     9    25    26   ar
    10    26    22    1
    11    22    21    1
    12    21    20    1
    13    20    19    1
    14    19     1    1
    15     1     2    1
    16     2     3    1
    17     3     4    1
    18     5     4    1
    19     5     6    1
    20     6     7    1
    21     7     9    1
    22     9    10   ar
    23    10    11   ar
    24    11    12   ar
    25    12    15    1
    26    15    16    1
    27    15    17    1
    28    15    18    1
    29    12    13   ar
    30    13    14   ar
    31     7     8    1
    32    26    27   ar
    33    27    28    1
    34    34    30   ar
    35    27    23   ar
    36     5     1    1
    37    14     9   ar
    38     8     2    1
@<TRIPOS>MOLECULE
*****
 34 38 0 0 0
SMALL
GASTEIGER

@<TRIPOS>ATOM
      1 N         140.6090  141.3142  168.9190 N.3     1  UNL1       -0.2752
      2 C         141.6636  142.3354  169.2273 C.3     1  UNL1        0.0578
      3 C         141.8744  142.3503  170.7123 C.3     1  UNL1        0.0173
      4 C         140.9502  141.3382  171.3218 C.3     1  UNL1        0.0173
      5 C         140.1681  140.6979  170.2135 C.3     1  UNL1        0.0578
      6 C         139.5407  140.2381  168.9196 C.3     1  UNL1        0.0203
      7 C         140.0802  140.9423  167.7100 C.3     1  UNL1        0.0250
      8 C         141.1416  141.9910  167.8639 C.3     1  UNL1        0.0203
      9 C         139.5581  140.5979  166.3466 C.ar    1  UNL1       -0.0224
     10 C         139.4089  141.6697  165.3078 C.ar    1  UNL1       -0.0046
     11 C         138.8869  141.3252  163.9445 C.ar    1  UNL1       -0.0046
     12 C         138.5141  139.9091  163.6198 C.ar    1  UNL1       -0.0228
     13 C         138.6633  138.8373  164.6586 C.ar    1  UNL1       -0.0046
     14 C         139.1853  139.1817  166.0219 C.ar    1  UNL1       -0.0046
     15 C         137.9921  139.5647  162.2564 C.3     1  UNL1        0.0189
     16 C         138.2181  138.0861  162.1440 C.3     1  UNL1        0.0044
     17 C         137.6290  141.0027  162.0322 C.3     1  UNL1        0.0044
     18 C         137.3977  139.5786  160.8792 C.3     1  UNL1        0.0044
     19 C         140.0870  140.9698  167.5556 C.3     1  UNL1        0.0729
     20 C         140.7115  139.8524  166.7736 C.3     1  UNL1        0.0294
     21 C         142.1789  139.5719  166.9077 C.3     1  UNL1        0.0666
     22 S         142.9908  139.2281  165.6942 S.3     1  UNL1       -0.0756
     23 C         142.1396  141.2794  162.5110 C.ar    1  UNL1        0.2029
     24 N         141.8240  139.8869  162.0514 N.ar    1  UNL1       -0.1250
     25 N         142.1044  138.9489  163.1879 N.ar    1  UNL1       -0.1220
     26 C         142.5933  139.7618  164.3499 C.ar    1  UNL1        0.1933
     27 N         142.6151  141.2021  163.9315 N.ar    1  UNL1       -0.2860
     28 C         142.9577  142.5541  164.4838 C.3     1  UNL1        0.1341
     29 C         144.4199  142.5469  160.5506 C.3     1  UNL1        0.0556
     30 C         143.0517  143.1123  160.7925 C.ar    1  UNL1        0.1001
     31 N         142.4915  144.3597  160.1757 N.ar    1  UNL1       -0.2085
     32 C         141.0972  144.5479  160.6957 C.ar    1  UNL1        0.2849
     33 O         140.7957  143.4170  161.6337 O.2     1  UNL1       -0.4283
     34 C         142.0036  142.5297  161.6936 C.ar    1  UNL1        0.1964
@<TRIPOS>BOND
     1    29    30    1
     2    30    31   ar
     3    31    32   ar
     4    32    33   ar
     5    33    34   ar
     6    34    23    1
     7    23    24   ar
     8    24    25   ar
     9    25    26   ar
    10    26    22    1
    11    22    21    1
    12    21    20    1
    13    20    19    1
    14    19     1    1
    15     1     2    1
    16     2     3    1
    17     3     4    1
    18     5     4    1
    19     5     6    1
    20     6     7    1
    21     7     9    1
    22     9    10   ar
    23    10    11   ar
    24    11    12   ar
    25    12    15    1
    26    15    16    1
    27    15    17    1
    28    15    18    1
    29    12    13   ar
    30    13    14   ar
    31     7     8    1
    32    26    27   ar
    33    27    28    1
    34    34    30   ar
    35    27    23   ar
    36     5     1    1
    37    14     9   ar
    38     8     2    1
@<TRIPOS>MOLECULE
*****
 34 38 0 0 0
SMALL
GASTEIGER

@<TRIPOS>ATOM
      1 N         140.8076  141.2659  168.8446 N.3     1  UNL1       -0.2752
      2 C         141.7093  142.4147  169.1871 C.3     1  UNL1        0.0578
      3 C         142.0208  142.3386  170.6524 C.3     1  UNL1        0.0173
      4 C         141.3116  141.1428  171.2155 C.3     1  UNL1        0.0173
      5 C         140.5618  140.4798  170.0983 C.3     1  UNL1        0.0578
      6 C         139.9230  140.0350  168.8047 C.3     1  UNL1        0.0203
      7 C         140.2582  140.9164  167.6382 C.3     1  UNL1        0.0250
      8 C         141.1514  142.1062  167.8293 C.3     1  UNL1        0.0203
      9 C         139.7002  140.6078  166.2803 C.ar    1  UNL1       -0.0224
     10 C         138.7493  139.4613  166.1031 C.ar    1  UNL1       -0.0046
     11 C         138.1914  139.1528  164.7454 C.ar    1  UNL1       -0.0046
     12 C         138.5843  139.9907  163.5649 C.ar    1  UNL1       -0.0228
     13 C         139.5353  141.1372  163.7422 C.ar    1  UNL1       -0.0046
     14 C         140.0932  141.4457  165.0999 C.ar    1  UNL1       -0.0046
     15 C         138.0263  139.6821  162.2072 C.3     1  UNL1        0.0189
     16 C         138.1308  138.1895  162.1025 C.3     1  UNL1        0.0044
     17 C         137.7795  141.1436  161.9765 C.3     1  UNL1        0.0044
     18 C         137.4251  139.7365  160.8339 C.3     1  UNL1        0.0044
     19 C         140.2497  140.9574  167.4868 C.3     1  UNL1        0.0729
     20 C         140.9019  139.9157  166.6269 C.3     1  UNL1        0.0294
     21 C         142.2591  139.3883  166.9870 C.3     1  UNL1        0.0666
     22 S         143.1457  138.8107  165.9238 S.3     1  UNL1       -0.0756
     23 C         142.1505  138.0156  162.2575 C.ar    1  UNL1        0.2029
     24 N         141.1375  137.2088  163.0142 N.ar    1  UNL1       -0.1250
     25 N         141.3870  137.4084  164.4798 N.ar    1  UNL1       -0.1220
     26 C         142.5542  138.3386  164.6287 C.ar    1  UNL1        0.1933
     27 N         143.0261  138.7139  163.2552 N.ar    1  UNL1       -0.2860
     28 C         144.0780  139.5518  162.5906 C.3     1  UNL1        0.1341
     29 C         141.0799  140.4744  160.3980 C.3     1  UNL1        0.0556
     30 C         141.7754  139.2381  159.9102 C.ar    1  UNL1        0.1001
     31 N         142.1008  138.9150  158.4820 N.ar    1  UNL1       -0.2085
     32 C         142.7941  137.5851  158.4540 C.ar    1  UNL1        0.2849
     33 O         142.8971  137.0863  159.8649 O.2     1  UNL1       -0.4283
     34 C         142.2675  138.1079  160.7649 C.ar    1  UNL1        0.1964
@<TRIPOS>BOND
     1    29    30    1
     2    30    31   ar
     3    31    32   ar
     4    32    33   ar
     5    33    34   ar
     6    34    23    1
     7    23    24   ar
     8    24    25   ar
     9    25    26   ar
    10    26    22    1
    11    22    21    1
    12    21    20    1
    13    20    19    1
    14    19     1    1
    15     1     2    1
    16     2     3    1
    17     3     4    1
    18     5     4    1
    19     5     6    1
    20     6     7    1
    21     7     9    1
    22     9    10   ar
    23    10    11   ar
    24    11    12   ar
    25    12    15    1
    26    15    16    1
    27    15    17    1
    28    15    18    1
    29    12    13   ar
    30    13    14   ar
    31     7     8    1
    32    26    27   ar
    33    27    28    1
    34    34    30   ar
    35    27    23   ar
    36     5     1    1
    37    14     9   ar
    38     8     2    1
@<TRIPOS>MOLECULE
*****
 34 38 0 0 0
SMALL
GASTEIGER

@<TRIPOS>ATOM
      1 N         140.5143  141.4642  168.8146 N.3     1  UNL1       -0.2752
      2 C         140.8362  142.8498  169.2905 C.3     1  UNL1        0.0578
      3 C         141.3152  142.7532  170.7087 C.3     1  UNL1        0.0173
      4 C         141.2893  141.3079  171.1093 C.3     1  UNL1        0.0173
      5 C         140.7943  140.5112  169.9386 C.3     1  UNL1        0.0578
      6 C         140.2794  139.9784  168.6233 C.3     1  UNL1        0.0203
      7 C         140.0458  141.0461  167.5959 C.3     1  UNL1        0.0250
      8 C         140.3242  142.4818  167.9295 C.3     1  UNL1        0.0203
      9 C         139.5337  140.6780  166.2348 C.ar    1  UNL1       -0.0224
     10 C         139.5739  139.2493  165.7795 C.ar    1  UNL1       -0.0046
     11 C         139.0619  138.8813  164.4185 C.ar    1  UNL1       -0.0046
     12 C         138.5097  139.9419  163.5129 C.ar    1  UNL1       -0.0228
     13 C         138.4695  141.3706  163.9682 C.ar    1  UNL1       -0.0046
     14 C         138.9815  141.7386  165.3292 C.ar    1  UNL1       -0.0046
     15 C         137.9977  139.5738  162.1519 C.3     1  UNL1        0.0189
     16 C         138.1674  138.0847  162.0907 C.3     1  UNL1        0.0044
     17 C         137.6950  141.0167  161.8755 C.3     1  UNL1        0.0044
     18 C         137.4276  139.5658  160.7644 C.3     1  UNL1        0.0044
     19 C         140.0023  141.0962  167.4536 C.3     1  UNL1        0.0729
     20 C         140.8848  141.2573  166.2514 C.3     1  UNL1        0.0294
     21 C         142.3632  141.0345  166.3711 C.3     1  UNL1        0.0666
     22 S         143.3213  142.0190  165.7688 S.3     1  UNL1       -0.0756
     23 C         144.3284  141.0364  162.1515 C.ar    1  UNL1        0.2029
     24 N         145.6490  141.4759  162.7107 N.ar    1  UNL1       -0.1250
     25 N         145.4325  141.8975  164.1338 N.ar    1  UNL1       -0.1220
     26 C         143.9781  141.7186  164.4542 C.ar    1  UNL1        0.1933
     27 N         143.2957  141.1863  163.2290 N.ar    1  UNL1       -0.2860
     28 C         141.9324  140.7688  162.7628 C.3     1  UNL1        0.1341
     29 C         143.9594  137.9149  161.2741 C.3     1  UNL1        0.0556
     30 C         143.9138  139.1002  160.3559 C.ar    1  UNL1        0.1001
     31 N         143.6907  139.0587  158.8731 N.ar    1  UNL1       -0.2085
     32 C         143.7223  140.4679  158.3601 C.ar    1  UNL1        0.2849
     33 O         143.9650  141.3802  159.5257 O.2     1  UNL1       -0.4283
     34 C         144.0834  140.5350  160.7592 C.ar    1  UNL1        0.1964
@<TRIPOS>BOND
     1    29    30    1
     2    30    31   ar
     3    31    32   ar
     4    32    33   ar
     5    33    34   ar
     6    34    23    1
     7    23    24   ar
     8    24    25   ar
     9    25    26   ar
    10    26    22    1
    11    22    21    1
    12    21    20    1
    13    20    19    1
    14    19     1    1
    15     1     2    1
    16     2     3    1
    17     3     4    1
    18     5     4    1
    19     5     6    1
    20     6     7    1
    21     7     9    1
    22     9    10   ar
    23    10    11   ar
    24    11    12   ar
    25    12    15    1
    26    15    16    1
    27    15    17    1
    28    15    18    1
    29    12    13   ar
    30    13    14   ar
    31     7     8    1
    32    26    27   ar
    33    27    28    1
    34    34    30   ar
    35    27    23   ar
    36     5     1    1
    37    14     9   ar
    38     8     2    1
@<TRIPOS>MOLECULE
*****
 34 38 0 0 0
SMALL
GASTEIGER

@<TRIPOS>ATOM
      1 N         140.5340  141.2099  168.8443 N.3     1  UNL1       -0.2752
      2 C         140.7979  140.2367  169.9548 C.3     1  UNL1        0.0578
      3 C         141.3187  141.0066  171.1320 C.3     1  UNL1        0.0173
      4 C         141.3767  142.4558  170.7491 C.3     1  UNL1        0.0173
      5 C         140.8918  142.5814  169.3352 C.3     1  UNL1        0.0578
      6 C         140.3696  142.4079  167.9294 C.3     1  UNL1        0.0203
      7 C         140.0550  140.9835  167.5799 C.3     1  UNL1        0.0250
      8 C         140.2691  139.8979  168.5926 C.3     1  UNL1        0.0203
      9 C         139.5262  140.6448  166.2176 C.ar    1  UNL1       -0.0224
     10 C         139.4535  139.2131  165.7760 C.ar    1  UNL1       -0.0046
     11 C         138.9247  138.8744  164.4138 C.ar    1  UNL1       -0.0046
     12 C         138.4687  139.9673  163.4932 C.ar    1  UNL1       -0.0228
     13 C         138.5414  141.3990  163.9348 C.ar    1  UNL1       -0.0046
     14 C         139.0702  141.7377  165.2970 C.ar    1  UNL1       -0.0046
     15 C         137.9399  139.6285  162.1310 C.3     1  UNL1        0.0189
     16 C         138.0479  138.1341  162.0610 C.3     1  UNL1        0.0044
     17 C         137.6967  141.0843  161.8634 C.3     1  UNL1        0.0044
     18 C         137.3680  139.6522  160.7444 C.3     1  UNL1        0.0044
     19 C         140.0053  140.8712  167.4821 C.3     1  UNL1        0.0729
     20 C         140.9515  140.4776  166.3868 C.3     1  UNL1        0.0294
     21 C         142.4199  140.7472  166.5315 C.3     1  UNL1        0.0666
     22 S         143.2340  141.1302  165.3313 S.3     1  UNL1       -0.0756
     23 C         141.5843  142.6980  162.1872 C.ar    1  UNL1        0.2029
     24 N         141.4218  141.2347  161.9005 N.ar    1  UNL1       -0.1250
     25 N         142.0200  140.4693  163.0434 N.ar    1  UNL1       -0.1220
     26 C         142.5522  141.4596  164.0364 C.ar    1  UNL1        0.1933
     27 N         142.2829  142.8370  163.5072 N.ar    1  UNL1       -0.2860
     28 C         142.4926  144.2739  163.8835 C.3     1  UNL1        0.1341
     29 C         138.9747  144.5909  162.6939 C.3     1  UNL1        0.0556
     30 C         139.9287  144.6947  161.5410 C.ar    1  UNL1        0.1001
     31 N         139.8507  145.6868  160.4187 N.ar    1  UNL1       -0.2085
     32 C         141.0019  145.4298  159.4921 C.ar    1  UNL1        0.2849
     33 O         141.7914  144.2790  160.0418 O.2     1  UNL1       -0.4283
     34 C         141.1282  143.8246  161.3081 C.ar    1  UNL1        0.1964
@<TRIPOS>BOND
     1    29    30    1
     2    30    31   ar
     3    31    32   ar
     4    32    33   ar
     5    33    34   ar
     6    34    23    1
     7    23    24   ar
     8    24    25   ar
     9    25    26   ar
    10    26    22    1
    11    22    21    1
    12    21    20    1
    13    20    19    1
    14    19     1    1
    15     1     2    1
    16     2     3    1
    17     3     4    1
    18     5     4    1
    19     5     6    1
    20     6     7    1
    21     7     9    1
    22     9    10   ar
    23    10    11   ar
    24    11    12   ar
    25    12    15    1
    26    15    16    1
    27    15    17    1
    28    15    18    1
    29    12    13   ar
    30    13    14   ar
    31     7     8    1
    32    26    27   ar
    33    27    28    1
    34    34    30   ar
    35    27    23   ar
    36     5     1    1
    37    14     9   ar
    38     8     2    1
@<TRIPOS>MOLECULE
*****
 34 38 0 0 0
SMALL
GASTEIGER

@<TRIPOS>ATOM
      1 N         141.7412  142.2586  168.2016 N.3     1  UNL1       -0.2752
      2 C         142.7118  142.3771  169.3391 C.3     1  UNL1        0.0578
      3 C         142.0990  143.2655  170.3808 C.3     1  UNL1        0.0173
      4 C         140.7497  143.6962  169.8870 C.3     1  UNL1        0.0173
      5 C         140.5285  143.0739  168.5402 C.3     1  UNL1        0.0578
      6 C         140.5806  142.3288  167.2283 C.3     1  UNL1        0.0203
      7 C         141.8522  141.5587  167.0280 C.3     1  UNL1        0.0250
      8 C         142.9178  141.5829  168.0834 C.3     1  UNL1        0.0203
      9 C         142.0581  140.7644  165.7723 C.ar    1  UNL1       -0.0224
     10 C         142.9207  139.5374  165.7939 C.ar    1  UNL1       -0.0046
     11 C         143.1266  138.7432  164.5383 C.ar    1  UNL1       -0.0046
     12 C         142.4700  139.1759  163.2609 C.ar    1  UNL1       -0.0228
     13 C         141.6074  140.4029  163.2393 C.ar    1  UNL1       -0.0046
     14 C         141.4015  141.1971  164.4950 C.ar    1  UNL1       -0.0046
     15 C         142.6760  138.3817  162.0053 C.3     1  UNL1        0.0189
     16 C         141.2924  137.9522  161.6164 C.3     1  UNL1        0.0044
     17 C         144.1533  138.6262  162.0929 C.3     1  UNL1        0.0044
     18 C         143.2334  137.6702  160.8081 C.3     1  UNL1        0.0044
     19 C         141.9472  141.4644  166.9459 C.3     1  UNL1        0.0729
     20 C         142.5278  142.1221  165.7292 C.3     1  UNL1        0.0294
     21 C         143.8578  142.8106  165.8115 C.3     1  UNL1        0.0666
     22 S         144.1789  143.9364  164.8736 S.3     1  UNL1       -0.0756
     23 C         142.6335  144.0286  161.3144 C.ar    1  UNL1        0.2029
     24 N         143.9131  143.2901  161.0556 N.ar    1  UNL1       -0.1250
     25 N         144.6478  143.1656  162.3574 N.ar    1  UNL1       -0.1220
     26 C         143.8222  143.8272  163.4208 C.ar    1  UNL1        0.1933
     27 N         142.5772  144.3606  162.7761 N.ar    1  UNL1       -0.2860
     28 C         141.3255  145.1049  163.1356 C.3     1  UNL1        0.1341
     29 C         139.9196  142.3280  160.6882 C.3     1  UNL1        0.0556
     30 C         140.3452  143.5928  160.0033 C.ar    1  UNL1        0.1001
     31 N         139.5982  144.2979  158.9102 N.ar    1  UNL1       -0.2085
     32 C         140.3839  145.5154  158.5225 C.ar    1  UNL1        0.2849
     33 O         141.6165  145.5627  159.3760 O.2     1  UNL1       -0.4283
     34 C         141.5927  144.3744  160.2911 C.ar    1  UNL1        0.1964
@<TRIPOS>BOND
     1    29    30    1
     2    30    31   ar
     3    31    32   ar
     4    32    33   ar
     5    33    34   ar
     6    34    23    1
     7    23    24   ar
     8    24    25   ar
     9    25    26   ar
    10    26    22    1
    11    22    21    1
    12    21    20    1
    13    20    19    1
    14    19     1    1
    15     1     2    1
    16     2     3    1
    17     3     4    1
    18     5     4    1
    19     5     6    1
    20     6     7    1
    21     7     9    1
    22     9    10   ar
    23    10    11   ar
    24    11    12   ar
    25    12    15    1
    26    15    16    1
    27    15    17    1
    28    15    18    1
    29    12    13   ar
    30    13    14   ar
    31     7     8    1
    32    26    27   ar
    33    27    28    1
    34    34    30   ar
    35    27    23   ar
    36     5     1    1
    37    14     9   ar
    38     8     2    1
@<TRIPOS>MOLECULE
*****
 34 38 0 0 0
SMALL
GASTEIGER

@<TRIPOS>ATOM
      1 N         141.3972  141.3675  168.8177 N.3     1  UNL1       -0.2752
      2 C         142.3541  142.5103  168.9857 C.3     1  UNL1        0.0578
      3 C         142.7495  142.5751  170.4312 C.3     1  UNL1        0.0173
      4 C         142.0370  141.4723  171.1565 C.3     1  UNL1        0.0173
      5 C         141.2012  140.7259  170.1593 C.3     1  UNL1        0.0578
      6 C         140.4727  140.1738  168.9578 C.3     1  UNL1        0.0203
      7 C         140.7661  140.9156  167.6876 C.3     1  UNL1        0.0250
      8 C         141.7068  142.0839  167.7015 C.3     1  UNL1        0.0203
      9 C         140.1188  140.4892  166.4033 C.ar    1  UNL1       -0.0224
     10 C         139.1474  139.3462  166.3965 C.ar    1  UNL1       -0.0046
     11 C         138.5001  138.9198  165.1123 C.ar    1  UNL1       -0.0046
     12 C         138.8242  139.6363  163.8350 C.ar    1  UNL1       -0.0228
     13 C         139.7956  140.7793  163.8418 C.ar    1  UNL1       -0.0046
     14 C         140.4428  141.2057  165.1260 C.ar    1  UNL1       -0.0046
     15 C         138.1769  139.2098  162.5508 C.3     1  UNL1        0.0189
     16 C         137.6834  140.4924  161.9496 C.3     1  UNL1        0.0044
     17 C         138.5240  137.7816  162.8502 C.3     1  UNL1        0.0044
     18 C         137.6328  138.4503  161.3773 C.3     1  UNL1        0.0044
     19 C         140.7499  140.9411  167.5334 C.3     1  UNL1        0.0729
     20 C         141.5033  140.0797  166.5637 C.3     1  UNL1        0.0294
     21 C         142.6270  139.2119  167.0475 C.3     1  UNL1        0.0666
     22 S         143.5258  138.5288  166.0598 S.3     1  UNL1       -0.0756
     23 C         143.7686  139.7568  162.3859 C.ar    1  UNL1        0.2029
     24 N         144.8085  140.6123  163.0467 N.ar    1  UNL1       -0.1250
     25 N         144.8441  140.2565  164.5034 N.ar    1  UNL1       -0.1220
     26 C         143.8263  139.1810  164.7429 C.ar    1  UNL1        0.1933
     27 N         143.1616  138.8722  163.4341 N.ar    1  UNL1       -0.2860
     28 C         142.1033  137.9732  162.8667 C.3     1  UNL1        0.1341
     29 C         141.7366  141.8734  160.9575 C.3     1  UNL1        0.0556
     30 C         142.4665  140.7545  160.2754 C.ar    1  UNL1        0.1001
     31 N         142.3904  140.4120  158.8170 N.ar    1  UNL1       -0.2085
     32 C         143.2774  139.2274  158.5722 C.ar    1  UNL1        0.2849
     33 O         143.9017  138.8378  159.8793 O.2     1  UNL1       -0.4283
     34 C         143.4005  139.7816  160.9320 C.ar    1  UNL1        0.1964
@<TRIPOS>BOND
     1    29    30    1
     2    30    31   ar
     3    31    32   ar
     4    32    33   ar
     5    33    34   ar
     6    34    23    1
     7    23    24   ar
     8    24    25   ar
     9    25    26   ar
    10    26    22    1
    11    22    21    1
    12    21    20    1
    13    20    19    1
    14    19     1    1
    15     1     2    1
    16     2     3    1
    17     3     4    1
    18     5     4    1
    19     5     6    1
    20     6     7    1
    21     7     9    1
    22     9    10   ar
    23    10    11   ar
    24    11    12   ar
    25    12    15    1
    26    15    16    1
    27    15    17    1
    28    15    18    1
    29    12    13   ar
    30    13    14   ar
    31     7     8    1
    32    26    27   ar
    33    27    28    1
    34    34    30   ar
    35    27    23   ar
    36     5     1    1
    37    14     9   ar
    38     8     2    1
