@<TRIPOS>MOLECULE
*****
 36 41 0 0 0
SMALL
GASTEIGER

@<TRIPOS>ATOM
      1 C         138.5204  141.8758  164.4887 C.3     1  UNL1        0.0955
      2 C         138.1367  141.8399  163.0390 C.3     1  UNL1        0.0287
      3 C         138.1601  143.1000  162.2256 C.3     1  UNL1        0.0193
      4 C         138.5672  144.3960  162.8619 C.3     1  UNL1        0.0700
      5 C         138.9509  144.4318  164.3115 C.3     1  UNL1        0.0193
      6 C         138.9275  143.1717  165.1250 C.3     1  UNL1        0.0287
      7 C         138.5697  143.7314  163.3481 C.3     1  UNL1        0.1562
      8 O         138.5486  142.5920  164.0836 O.3     1  UNL1       -0.3571
      9 N         138.5906  145.6561  162.0485 N.3     1  UNL1       -0.2939
     10 H         138.3205  146.4153  162.6738 H       1  UNL1        0.1235
     11 C         139.8561  146.0855  161.3673 C.3     1  UNL1        0.0954
     12 C         141.0249  145.1481  161.2962 C.2     1  UNL1       -0.0090
     13 C         141.8724  144.9124  162.5112 C.2     1  UNL1       -0.0032
     14 C         143.0412  143.9750  162.4401 C.ar    1  UNL1       -0.0003
     15 C         143.8393  143.6762  163.6745 C.ar    1  UNL1       -0.0000
     16 C         145.0081  142.7388  163.6033 C.ar    1  UNL1       -0.0000
     17 C         145.3788  142.1001  162.2976 C.ar    1  UNL1       -0.0000
     18 C         144.5808  142.3989  161.0633 C.ar    1  UNL1       -0.0000
     19 C         143.4119  143.3364  161.1344 C.ar    1  UNL1       -0.0000
     20 C         138.4970  140.6157  165.3021 C.3     1  UNL1        0.0604
     21 O         138.9757  141.1122  170.3822 O.2     1  UNL1       -0.2670
     22 C         140.1560  140.4384  169.7473 C.ar    1  UNL1        0.2611
     23 C         141.3099  139.9915  170.5950 C.ar    1  UNL1        0.0623
     24 C         142.4902  139.3177  169.9602 C.ar    1  UNL1        0.0254
     25 C         142.5165  139.0909  168.4777 C.ar    1  UNL1        0.0972
     26 N         143.5490  138.4528  167.5848 N.ar    1  UNL1       -0.2400
     27 C         143.4343  138.2949  166.0976 C.ar    1  UNL1        0.1282
     28 C         142.2138  138.7938  165.3824 C.ar    1  UNL1        0.1588
     29 F         142.0991  138.6359  163.8951 F       1  UNL1       -0.2027
     30 C         141.1081  139.4506  166.1544 C.ar    1  UNL1        0.0500
     31 C         141.3626  139.5379  167.6300 C.ar    1  UNL1        0.0806
     32 N         140.1823  140.2116  168.2649 N.ar    1  UNL1       -0.2915
     33 C         139.1984  140.5407  167.1815 C.3     1  UNL1        0.1402
     34 C         139.7705  140.0704  165.8771 C.3     1  UNL1        0.1335
     35 O         140.0765  139.7140  164.4526 O.3     1  UNL1       -0.3806
     36 H         139.3421  139.9943  163.8843 H       1  UNL1        0.2108
@<TRIPOS>BOND
     1    21    22    2
     2    22    23   ar
     3    23    24   ar
     4    24    25   ar
     5    25    26   ar
     6    26    27   ar
     7    27    28   ar
     8    28    29    1
     9    28    30   ar
    10    30    31   ar
    11    31    32   ar
    12    32    33    1
    13    33    34    1
    14    34    35    1
    15    34    20    1
    16    20     1    1
    17     1     2    1
    18     2     3    1
    19     3     4    1
    20     4     9    1
    21     9    11    1
    22    11    12    1
    23    12    13    2
    24    13    14    1
    25    14    15   ar
    26    15    16   ar
    27    16    17   ar
    28    17    18   ar
    29    18    19   ar
    30     4     5    1
    31     5     6    1
    32     4     7    1
    33     7     8    1
    34    32    22   ar
    35     6     1    1
    36    31    25   ar
    37     8     1    1
    38    34    30    1
    39    19    14   ar
    40    35    36    1
    41     9    10    1
@<TRIPOS>MOLECULE
*****
 36 41 0 0 0
SMALL
GASTEIGER

@<TRIPOS>ATOM
      1 C         138.3726  139.4042  164.6564 C.3     1  UNL1        0.0955
      2 C         137.7979  140.7875  164.5758 C.3     1  UNL1        0.0287
      3 C         137.5270  141.4104  163.2384 C.3     1  UNL1        0.0193
      4 C         137.8308  140.6500  161.9816 C.3     1  UNL1        0.0700
      5 C         138.4055  139.2669  162.0622 C.3     1  UNL1        0.0193
      6 C         138.6764  138.6439  163.3996 C.3     1  UNL1        0.0287
      7 C         137.9963  140.2671  162.6916 C.3     1  UNL1        0.1562
      8 O         138.2412  139.7039  163.9008 O.3     1  UNL1       -0.3571
      9 N         137.5599  141.2729  160.6442 N.3     1  UNL1       -0.2939
     10 H         136.7585  141.8923  160.7647 H       1  UNL1        0.1235
     11 C         138.6275  142.0741  159.9600 C.3     1  UNL1        0.0954
     12 C         139.5478  142.9411  160.7671 C.2     1  UNL1       -0.0090
     13 C         140.8681  142.4033  161.2335 C.2     1  UNL1       -0.0032
     14 C         141.7883  143.2703  162.0406 C.ar    1  UNL1       -0.0003
     15 C         143.2663  143.2351  161.7872 C.ar    1  UNL1       -0.0000
     16 C         144.1865  144.1022  162.5943 C.ar    1  UNL1       -0.0000
     17 C         143.6286  145.0045  163.6548 C.ar    1  UNL1       -0.0000
     18 C         142.1506  145.0397  163.9082 C.ar    1  UNL1       -0.0000
     19 C         141.2304  144.1726  163.1011 C.ar    1  UNL1       -0.0000
     20 C         138.6435  138.7814  165.9938 C.3     1  UNL1        0.0604
     21 O         142.9974  141.1194  164.6300 O.2     1  UNL1       -0.2670
     22 C         142.6193  141.3761  166.0587 C.ar    1  UNL1        0.2611
     23 C         143.4896  142.2416  166.9209 C.ar    1  UNL1        0.0623
     24 C         143.1115  142.4983  168.3496 C.ar    1  UNL1        0.0254
     25 C         141.8632  141.8895  168.9161 C.ar    1  UNL1        0.0972
     26 N         141.2474  141.9728  170.2888 N.ar    1  UNL1       -0.2400
     27 C         139.9762  141.2996  170.7139 C.ar    1  UNL1        0.1282
     28 C         139.2088  140.4601  169.7359 C.ar    1  UNL1        0.1588
     29 F         137.9376  139.7869  170.1611 F       1  UNL1       -0.2027
     30 C         139.7127  140.2937  168.3329 C.ar    1  UNL1        0.0500
     31 C         140.9929  141.0240  168.0539 C.ar    1  UNL1        0.0806
     32 N         141.3710  140.7673  166.6252 N.ar    1  UNL1       -0.2915
     33 C         140.3244  139.8784  166.0213 C.3     1  UNL1        0.1402
     34 C         139.2996  139.5857  167.0767 C.3     1  UNL1        0.1335
     35 O         138.1376  139.1249  167.9058 O.3     1  UNL1       -0.3806
     36 H         137.5594  138.5620  167.3676 H       1  UNL1        0.2108
@<TRIPOS>BOND
     1    21    22    2
     2    22    23   ar
     3    23    24   ar
     4    24    25   ar
     5    25    26   ar
     6    26    27   ar
     7    27    28   ar
     8    28    29    1
     9    28    30   ar
    10    30    31   ar
    11    31    32   ar
    12    32    33    1
    13    33    34    1
    14    34    35    1
    15    34    20    1
    16    20     1    1
    17     1     2    1
    18     2     3    1
    19     3     4    1
    20     4     9    1
    21     9    11    1
    22    11    12    1
    23    12    13    2
    24    13    14    1
    25    14    15   ar
    26    15    16   ar
    27    16    17   ar
    28    17    18   ar
    29    18    19   ar
    30     4     5    1
    31     5     6    1
    32     4     7    1
    33     7     8    1
    34    32    22   ar
    35     6     1    1
    36    31    25   ar
    37     8     1    1
    38    34    30    1
    39    19    14   ar
    40    35    36    1
    41     9    10    1
@<TRIPOS>MOLECULE
*****
 36 41 0 0 0
SMALL
GASTEIGER

@<TRIPOS>ATOM
      1 C         138.3991  141.6858  164.8674 C.3     1  UNL1        0.0955
      2 C         139.4255  142.5685  165.5136 C.3     1  UNL1        0.0287
      3 C         140.3222  142.0179  166.5826 C.3     1  UNL1        0.0193
      4 C         140.1926  140.5846  167.0054 C.3     1  UNL1        0.0700
      5 C         139.1663  139.7019  166.3592 C.3     1  UNL1        0.0193
      6 C         138.2695  140.2525  165.2902 C.3     1  UNL1        0.0287
      7 C         139.6788  140.8413  166.4153 C.3     1  UNL1        0.1562
      8 O         138.8680  141.3392  165.4488 O.3     1  UNL1       -0.3571
      9 N         141.0892  140.0339  168.0745 N.3     1  UNL1       -0.2939
     10 H         140.5602  139.3078  168.5574 H       1  UNL1        0.1235
     11 C         142.4132  139.4327  167.7064 C.3     1  UNL1        0.0954
     12 C         142.9591  139.6118  166.3208 C.2     1  UNL1       -0.0090
     13 C         142.5162  138.6988  165.2162 C.2     1  UNL1       -0.0032
     14 C         143.0622  138.8780  163.8307 C.ar    1  UNL1       -0.0003
     15 C         142.6579  137.9340  162.7373 C.ar    1  UNL1       -0.0000
     16 C         143.2038  138.1132  161.3517 C.ar    1  UNL1       -0.0000
     17 C         144.1541  139.2365  161.0596 C.ar    1  UNL1       -0.0000
     18 C         144.5583  140.1804  162.1529 C.ar    1  UNL1       -0.0000
     19 C         144.0124  140.0012  163.5385 C.ar    1  UNL1       -0.0000
     20 C         137.5025  142.2364  163.7984 C.3     1  UNL1        0.0604
     21 O         140.3105  146.1411  162.0233 O.2     1  UNL1       -0.2670
     22 C         140.0418  145.0945  160.9829 C.ar    1  UNL1        0.2611
     23 C         140.5815  145.2622  159.5935 C.ar    1  UNL1        0.0623
     24 C         140.3128  144.2156  158.5531 C.ar    1  UNL1        0.0254
     25 C         139.5043  143.0013  158.9021 C.ar    1  UNL1        0.0972
     26 N         139.0847  141.8120  158.0776 N.ar    1  UNL1       -0.2400
     27 C         138.2643  140.6574  158.5713 C.ar    1  UNL1        0.1282
     28 C         137.7926  140.6271  159.9949 C.ar    1  UNL1        0.1588
     29 F         136.9722  139.4725  160.4886 F       1  UNL1       -0.2027
     30 C         138.1412  141.7514  160.9247 C.ar    1  UNL1        0.0500
     31 C         138.9646  142.8336  160.2916 C.ar    1  UNL1        0.0806
     32 N         139.2333  143.8802  161.3320 N.ar    1  UNL1       -0.2915
     33 C         138.5760  143.4448  162.6080 C.3     1  UNL1        0.1402
     34 C         137.9011  142.1291  162.3563 C.3     1  UNL1        0.1335
     35 O         137.1428  140.8358  162.4061 O.3     1  UNL1       -0.3806
     36 H         136.7835  140.7057  163.2976 H       1  UNL1        0.2108
@<TRIPOS>BOND
     1    21    22    2
     2    22    23   ar
     3    23    24   ar
     4    24    25   ar
     5    25    26   ar
     6    26    27   ar
     7    27    28   ar
     8    28    29    1
     9    28    30   ar
    10    30    31   ar
    11    31    32   ar
    12    32    33    1
    13    33    34    1
    14    34    35    1
    15    34    20    1
    16    20     1    1
    17     1     2    1
    18     2     3    1
    19     3     4    1
    20     4     9    1
    21     9    11    1
    22    11    12    1
    23    12    13    2
    24    13    14    1
    25    14    15   ar
    26    15    16   ar
    27    16    17   ar
    28    17    18   ar
    29    18    19   ar
    30     4     5    1
    31     5     6    1
    32     4     7    1
    33     7     8    1
    34    32    22   ar
    35     6     1    1
    36    31    25   ar
    37     8     1    1
    38    34    30    1
    39    19    14   ar
    40    35    36    1
    41     9    10    1
@<TRIPOS>MOLECULE
*****
 36 41 0 0 0
SMALL
GASTEIGER

@<TRIPOS>ATOM
      1 C         138.5152  138.3655  163.2267 C.3     1  UNL1        0.0955
      2 C         138.8545  137.3112  164.2384 C.3     1  UNL1        0.0287
      3 C         138.8983  137.6579  165.6971 C.3     1  UNL1        0.0193
      4 C         138.6028  139.0589  166.1442 C.3     1  UNL1        0.0700
      5 C         138.2635  140.1132  165.1325 C.3     1  UNL1        0.0193
      6 C         138.2197  139.7665  163.6737 C.3     1  UNL1        0.0287
      7 C         138.5665  138.9166  165.3339 C.3     1  UNL1        0.1562
      8 O         138.5269  138.6031  164.0149 O.3     1  UNL1       -0.3571
      9 N         138.6466  139.4057  167.6029 N.3     1  UNL1       -0.2939
     10 H         138.4151  138.5545  168.1150 H       1  UNL1        0.1235
     11 C         139.9086  139.9454  168.2078 C.3     1  UNL1        0.0954
     12 C         140.9945  140.4822  167.3232 C.2     1  UNL1       -0.0090
     13 C         142.0012  139.5479  166.7201 C.2     1  UNL1       -0.0032
     14 C         143.0871  140.0848  165.8355 C.ar    1  UNL1       -0.0003
     15 C         143.9930  139.1403  165.1025 C.ar    1  UNL1       -0.0000
     16 C         145.0789  139.6772  164.2178 C.ar    1  UNL1       -0.0000
     17 C         145.2588  141.1587  164.0662 C.ar    1  UNL1       -0.0000
     18 C         144.3530  142.1031  164.7992 C.ar    1  UNL1       -0.0000
     19 C         143.2671  141.5662  165.6839 C.ar    1  UNL1       -0.0000
     20 C         138.4714  138.0187  161.7680 C.3     1  UNL1        0.0604
     21 O         137.1070  140.5995  157.5537 O.2     1  UNL1       -0.2670
     22 C         138.5878  140.3812  157.6511 C.ar    1  UNL1        0.2611
     23 C         139.4950  140.9020  156.5761 C.ar    1  UNL1        0.0623
     24 C         140.9759  140.6837  156.6735 C.ar    1  UNL1        0.0254
     25 C         141.5495  139.9445  157.8459 C.ar    1  UNL1        0.0972
     26 N         142.9691  139.5846  158.2001 N.ar    1  UNL1       -0.2400
     27 C         143.3955  138.8312  159.4250 C.ar    1  UNL1        0.1282
     28 C         142.3692  138.3710  160.4175 C.ar    1  UNL1        0.1588
     29 F         142.7955  137.6176  161.6425 F       1  UNL1       -0.2027
     30 C         140.9166  138.6642  160.1850 C.ar    1  UNL1        0.0500
     31 C         140.6422  139.4236  158.9208 C.ar    1  UNL1        0.0806
     32 N         139.1614  139.6420  158.8234 N.ar    1  UNL1       -0.2915
     33 C         138.5206  139.0175  160.0274 C.3     1  UNL1        0.1402
     34 C         139.6054  138.4132  160.8689 C.3     1  UNL1        0.1335
     35 O         140.4531  137.7265  161.8983 O.3     1  UNL1       -0.3806
     36 H         139.8863  137.3806  162.6054 H       1  UNL1        0.2108
@<TRIPOS>BOND
     1    21    22    2
     2    22    23   ar
     3    23    24   ar
     4    24    25   ar
     5    25    26   ar
     6    26    27   ar
     7    27    28   ar
     8    28    29    1
     9    28    30   ar
    10    30    31   ar
    11    31    32   ar
    12    32    33    1
    13    33    34    1
    14    34    35    1
    15    34    20    1
    16    20     1    1
    17     1     2    1
    18     2     3    1
    19     3     4    1
    20     4     9    1
    21     9    11    1
    22    11    12    1
    23    12    13    2
    24    13    14    1
    25    14    15   ar
    26    15    16   ar
    27    16    17   ar
    28    17    18   ar
    29    18    19   ar
    30     4     5    1
    31     5     6    1
    32     4     7    1
    33     7     8    1
    34    32    22   ar
    35     6     1    1
    36    31    25   ar
    37     8     1    1
    38    34    30    1
    39    19    14   ar
    40    35    36    1
    41     9    10    1
@<TRIPOS>MOLECULE
*****
 36 41 0 0 0
SMALL
GASTEIGER

@<TRIPOS>ATOM
      1 C         140.1787  138.3098  164.5749 C.3     1  UNL1        0.0955
      2 C         141.5241  138.6923  165.1168 C.3     1  UNL1        0.0287
      3 C         141.6253  139.4459  166.4098 C.3     1  UNL1        0.0193
      4 C         140.3810  139.8169  167.1610 C.3     1  UNL1        0.0700
      5 C         139.0357  139.4343  166.6191 C.3     1  UNL1        0.0193
      6 C         138.9344  138.6808  165.3260 C.3     1  UNL1        0.0287
      7 C         140.2753  139.4037  166.4565 C.3     1  UNL1        0.1562
      8 O         140.1838  138.7224  165.2874 O.3     1  UNL1       -0.3571
      9 N         140.4822  140.5704  168.4541 N.3     1  UNL1       -0.2939
     10 H         141.3517  140.2763  168.8990 H       1  UNL1        0.1235
     11 C         140.4837  142.0703  168.4498 C.3     1  UNL1        0.0954
     12 C         140.8321  142.8164  167.1960 C.2     1  UNL1       -0.0090
     13 C         139.7650  143.1331  166.1905 C.2     1  UNL1       -0.0032
     14 C         140.1135  143.8792  164.9367 C.ar    1  UNL1       -0.0003
     15 C         139.0305  144.5169  164.1179 C.ar    1  UNL1       -0.0000
     16 C         139.3790  145.2630  162.8641 C.ar    1  UNL1       -0.0000
     17 C         140.8106  145.3713  162.4293 C.ar    1  UNL1       -0.0000
     18 C         141.8934  144.7336  163.2481 C.ar    1  UNL1       -0.0000
     19 C         141.5449  143.9875  164.5019 C.ar    1  UNL1       -0.0000
     20 C         140.0775  137.5563  163.2818 C.3     1  UNL1        0.0604
     21 O         137.4132  141.6743  161.7900 O.2     1  UNL1       -0.2670
     22 C         138.5307  141.3298  160.8506 C.ar    1  UNL1        0.2611
     23 C         138.7656  142.1643  159.6265 C.ar    1  UNL1        0.0623
     24 C         139.8831  141.8199  158.6871 C.ar    1  UNL1        0.0254
     25 C         140.7657  140.6409  158.9717 C.ar    1  UNL1        0.0972
     26 N         141.9404  140.0703  158.2201 N.ar    1  UNL1       -0.2400
     27 C         142.7365  138.8682  158.6338 C.ar    1  UNL1        0.1282
     28 C         142.3822  138.1302  159.8907 C.ar    1  UNL1        0.1588
     29 F         143.1783  136.9281  160.3043 F       1  UNL1       -0.2027
     30 C         141.2317  138.5943  160.7339 C.ar    1  UNL1        0.0500
     31 C         140.5308  139.8064  160.1957 C.ar    1  UNL1        0.0806
     32 N         139.4133  140.1509  161.1352 N.ar    1  UNL1       -0.2915
     33 C         139.4236  139.1517  162.2539 C.3     1  UNL1        0.1402
     34 C         140.5474  138.1897  162.0059 C.3     1  UNL1        0.1335
     35 O         141.5730  137.0953  162.0246 O.3     1  UNL1       -0.3806
     36 H         141.4403  136.5412  162.8096 H       1  UNL1        0.2108
@<TRIPOS>BOND
     1    21    22    2
     2    22    23   ar
     3    23    24   ar
     4    24    25   ar
     5    25    26   ar
     6    26    27   ar
     7    27    28   ar
     8    28    29    1
     9    28    30   ar
    10    30    31   ar
    11    31    32   ar
    12    32    33    1
    13    33    34    1
    14    34    35    1
    15    34    20    1
    16    20     1    1
    17     1     2    1
    18     2     3    1
    19     3     4    1
    20     4     9    1
    21     9    11    1
    22    11    12    1
    23    12    13    2
    24    13    14    1
    25    14    15   ar
    26    15    16   ar
    27    16    17   ar
    28    17    18   ar
    29    18    19   ar
    30     4     5    1
    31     5     6    1
    32     4     7    1
    33     7     8    1
    34    32    22   ar
    35     6     1    1
    36    31    25   ar
    37     8     1    1
    38    34    30    1
    39    19    14   ar
    40    35    36    1
    41     9    10    1
@<TRIPOS>MOLECULE
*****
 36 41 0 0 0
SMALL
GASTEIGER

@<TRIPOS>ATOM
      1 C         138.4502  138.6789  162.9595 C.3     1  UNL1        0.0955
      2 C         138.0821  140.0353  163.4837 C.3     1  UNL1        0.0287
      3 C         138.1735  140.3216  164.9533 C.3     1  UNL1        0.0193
      4 C         138.6331  139.2516  165.8987 C.3     1  UNL1        0.0700
      5 C         139.0012  137.8953  165.3746 C.3     1  UNL1        0.0193
      6 C         138.9098  137.6088  163.9050 C.3     1  UNL1        0.0287
      7 C         138.5990  139.0475  165.1017 C.3     1  UNL1        0.1562
      8 O         138.5164  138.7887  163.7729 O.3     1  UNL1       -0.3571
      9 N         138.7245  139.5379  167.3683 N.3     1  UNL1       -0.2939
     10 H         138.4535  138.6820  167.8525 H       1  UNL1        0.1235
     11 C         140.0270  139.9799  167.9666 C.3     1  UNL1        0.0954
     12 C         141.0593  140.6472  167.1067 C.2     1  UNL1       -0.0090
     13 C         142.2021  139.8499  166.5515 C.2     1  UNL1       -0.0032
     14 C         143.2343  140.5172  165.6916 C.ar    1  UNL1       -0.0003
     15 C         143.4002  142.0072  165.7387 C.ar    1  UNL1       -0.0000
     16 C         144.4323  142.6745  164.8788 C.ar    1  UNL1       -0.0000
     17 C         145.2986  141.8516  163.9719 C.ar    1  UNL1       -0.0000
     18 C         145.1327  140.3616  163.9249 C.ar    1  UNL1       -0.0000
     19 C         144.1005  139.6943  164.7847 C.ar    1  UNL1       -0.0000
     20 C         138.3588  138.3925  161.4900 C.3     1  UNL1        0.0604
     21 O         143.4499  137.8678  161.7865 O.2     1  UNL1       -0.2670
     22 C         143.0234  138.8361  160.7232 C.ar    1  UNL1        0.2611
     23 C         144.0546  139.5303  159.8838 C.ar    1  UNL1        0.0623
     24 C         143.6282  140.4985  158.8205 C.ar    1  UNL1        0.0254
     25 C         142.1706  140.7725  158.5965 C.ar    1  UNL1        0.0972
     26 N         141.4646  141.6775  157.6203 N.ar    1  UNL1       -0.2400
     27 C         139.9785  141.8497  157.5124 C.ar    1  UNL1        0.1282
     28 C         139.0666  141.0842  158.4249 C.ar    1  UNL1        0.1588
     29 F         137.5805  141.2564  158.3170 F       1  UNL1       -0.2027
     30 C         139.6410  140.1467  159.4453 C.ar    1  UNL1        0.0500
     31 C         141.1394  140.0783  159.4359 C.ar    1  UNL1        0.0806
     32 N         141.5658  139.1100  160.4992 N.ar    1  UNL1       -0.2915
     33 C         140.3309  138.5801  161.1658 C.3     1  UNL1        0.1402
     34 C         139.1413  139.2207  160.5144 C.3     1  UNL1        0.1335
     35 O         137.7881  139.6883  160.0669 O.3     1  UNL1       -0.3806
     36 H         137.1034  139.2514  160.5972 H       1  UNL1        0.2108
@<TRIPOS>BOND
     1    21    22    2
     2    22    23   ar
     3    23    24   ar
     4    24    25   ar
     5    25    26   ar
     6    26    27   ar
     7    27    28   ar
     8    28    29    1
     9    28    30   ar
    10    30    31   ar
    11    31    32   ar
    12    32    33    1
    13    33    34    1
    14    34    35    1
    15    34    20    1
    16    20     1    1
    17     1     2    1
    18     2     3    1
    19     3     4    1
    20     4     9    1
    21     9    11    1
    22    11    12    1
    23    12    13    2
    24    13    14    1
    25    14    15   ar
    26    15    16   ar
    27    16    17   ar
    28    17    18   ar
    29    18    19   ar
    30     4     5    1
    31     5     6    1
    32     4     7    1
    33     7     8    1
    34    32    22   ar
    35     6     1    1
    36    31    25   ar
    37     8     1    1
    38    34    30    1
    39    19    14   ar
    40    35    36    1
    41     9    10    1
@<TRIPOS>MOLECULE
*****
 36 41 0 0 0
SMALL
GASTEIGER

@<TRIPOS>ATOM
      1 C         137.9550  140.4327  162.4074 C.3     1  UNL1        0.0955
      2 C         137.9209  140.3786  163.9061 C.3     1  UNL1        0.0287
      3 C         137.8104  141.6465  164.7000 C.3     1  UNL1        0.0193
      4 C         137.7342  142.9684  163.9953 C.3     1  UNL1        0.0700
      5 C         137.7684  143.0225  162.4967 C.3     1  UNL1        0.0193
      6 C         137.8788  141.7547  161.7027 C.3     1  UNL1        0.0287
      7 C         137.7939  142.3005  163.5175 C.3     1  UNL1        0.1562
      8 O         137.8937  141.1541  162.7996 O.3     1  UNL1       -0.3571
      9 N         137.6237  144.2363  164.7893 N.3     1  UNL1       -0.2939
     10 H         137.0608  144.0205  165.6120 H       1  UNL1        0.1235
     11 C         138.8630  144.9237  165.2807 C.3     1  UNL1        0.0954
     12 C         140.1960  144.2475  165.1542 C.2     1  UNL1       -0.0090
     13 C         141.0665  144.5223  163.9639 C.2     1  UNL1       -0.0032
     14 C         142.3994  143.8461  163.8374 C.ar    1  UNL1       -0.0003
     15 C         143.2333  144.0559  162.6083 C.ar    1  UNL1       -0.0000
     16 C         144.5662  143.3797  162.4819 C.ar    1  UNL1       -0.0000
     17 C         145.0653  142.4937  163.5846 C.ar    1  UNL1       -0.0000
     18 C         144.2315  142.2839  164.8136 C.ar    1  UNL1       -0.0000
     19 C         142.8985  142.9601  164.9401 C.ar    1  UNL1       -0.0000
     20 C         138.0655  139.1648  161.6134 C.3     1  UNL1        0.0604
     21 O         138.0479  139.8387  156.5313 O.2     1  UNL1       -0.2670
     22 C         139.3604  139.3287  157.0483 C.ar    1  UNL1        0.2611
     23 C         140.4923  139.0724  156.0981 C.ar    1  UNL1        0.0623
     24 C         141.8047  138.5624  156.6151 C.ar    1  UNL1        0.0254
     25 C         141.9853  138.3088  158.0824 C.ar    1  UNL1        0.0972
     26 N         143.1682  137.8069  158.8694 N.ar    1  UNL1       -0.2400
     27 C         143.2003  137.6009  160.3548 C.ar    1  UNL1        0.1282
     28 C         141.9844  137.9019  161.1801 C.ar    1  UNL1        0.1588
     29 F         142.0165  137.6959  162.6655 F       1  UNL1       -0.2027
     30 C         140.7365  138.4090  160.5200 C.ar    1  UNL1        0.0500
     31 C         140.8534  138.5651  159.0327 C.ar    1  UNL1        0.0806
     32 N         139.5409  139.0751  158.5156 N.ar    1  UNL1       -0.2915
     33 C         138.6130  139.2341  159.6834 C.3     1  UNL1        0.1402
     34 C         139.3519  138.8224  160.9221 C.3     1  UNL1        0.1335
     35 O         139.8219  138.4823  162.3054 O.3     1  UNL1       -0.3806
     36 H         139.1045  138.6407  162.9387 H       1  UNL1        0.2108
@<TRIPOS>BOND
     1    21    22    2
     2    22    23   ar
     3    23    24   ar
     4    24    25   ar
     5    25    26   ar
     6    26    27   ar
     7    27    28   ar
     8    28    29    1
     9    28    30   ar
    10    30    31   ar
    11    31    32   ar
    12    32    33    1
    13    33    34    1
    14    34    35    1
    15    34    20    1
    16    20     1    1
    17     1     2    1
    18     2     3    1
    19     3     4    1
    20     4     9    1
    21     9    11    1
    22    11    12    1
    23    12    13    2
    24    13    14    1
    25    14    15   ar
    26    15    16   ar
    27    16    17   ar
    28    17    18   ar
    29    18    19   ar
    30     4     5    1
    31     5     6    1
    32     4     7    1
    33     7     8    1
    34    32    22   ar
    35     6     1    1
    36    31    25   ar
    37     8     1    1
    38    34    30    1
    39    19    14   ar
    40    35    36    1
    41     9    10    1
@<TRIPOS>MOLECULE
*****
 36 41 0 0 0
SMALL
GASTEIGER

@<TRIPOS>ATOM
      1 C         139.6699  138.3344  164.4897 C.3     1  UNL1        0.0955
      2 C         141.0624  138.5886  164.9862 C.3     1  UNL1        0.0287
      3 C         141.2766  139.3382  166.2677 C.3     1  UNL1        0.0193
      4 C         140.0983  139.8337  167.0527 C.3     1  UNL1        0.0700
      5 C         138.7059  139.5796  166.5562 C.3     1  UNL1        0.0193
      6 C         138.4916  138.8299  165.2747 C.3     1  UNL1        0.0287
      7 C         139.9310  139.4277  166.3561 C.3     1  UNL1        0.1562
      8 O         139.7373  138.7498  165.1974 O.3     1  UNL1       -0.3571
      9 N         140.3125  140.5834  168.3341 N.3     1  UNL1       -0.2939
     10 H         141.1594  140.2051  168.7586 H       1  UNL1        0.1235
     11 C         140.4678  142.0752  168.3133 C.3     1  UNL1        0.0954
     12 C         140.8219  142.7746  167.0344 C.2     1  UNL1       -0.0090
     13 C         139.7370  143.2958  166.1393 C.2     1  UNL1       -0.0032
     14 C         140.0912  143.9952  164.8605 C.ar    1  UNL1       -0.0003
     15 C         141.5210  144.0585  164.4113 C.ar    1  UNL1       -0.0000
     16 C         141.8752  144.7579  163.1325 C.ar    1  UNL1       -0.0000
     17 C         140.7995  145.3940  162.3028 C.ar    1  UNL1       -0.0000
     18 C         139.3698  145.3307  162.7520 C.ar    1  UNL1       -0.0000
     19 C         139.0156  144.6313  164.0308 C.ar    1  UNL1       -0.0000
     20 C         139.4557  137.5848  163.2082 C.3     1  UNL1        0.0604
     21 O         144.0965  137.8806  161.0501 O.2     1  UNL1       -0.2670
     22 C         143.0296  138.5492  160.2349 C.ar    1  UNL1        0.2611
     23 C         143.3821  139.2096  158.9351 C.ar    1  UNL1        0.0623
     24 C         142.3152  139.8781  158.1199 C.ar    1  UNL1        0.0254
     25 C         140.8957  139.8863  158.6044 C.ar    1  UNL1        0.0972
     26 N         139.6415  140.4696  158.0068 N.ar    1  UNL1       -0.2400
     27 C         138.2728  140.3974  158.6163 C.ar    1  UNL1        0.1282
     28 C         138.0722  139.6998  159.9289 C.ar    1  UNL1        0.1588
     29 F         136.7036  139.6277  160.5385 F       1  UNL1       -0.2027
     30 C         139.2403  139.0743  160.6320 C.ar    1  UNL1        0.0500
     31 C         140.5431  139.2259  159.9042 C.ar    1  UNL1        0.0806
     32 N         141.6100  138.5573  160.7194 N.ar    1  UNL1       -0.2915
     33 C         140.9666  137.9925  161.9511 C.3     1  UNL1        0.1402
     34 C         139.5021  138.3120  161.8971 C.3     1  UNL1        0.1335
     35 O         138.0278  138.4795  162.1172 O.3     1  UNL1       -0.3806
     36 H         137.7760  138.0590  162.9543 H       1  UNL1        0.2108
@<TRIPOS>BOND
     1    21    22    2
     2    22    23   ar
     3    23    24   ar
     4    24    25   ar
     5    25    26   ar
     6    26    27   ar
     7    27    28   ar
     8    28    29    1
     9    28    30   ar
    10    30    31   ar
    11    31    32   ar
    12    32    33    1
    13    33    34    1
    14    34    35    1
    15    34    20    1
    16    20     1    1
    17     1     2    1
    18     2     3    1
    19     3     4    1
    20     4     9    1
    21     9    11    1
    22    11    12    1
    23    12    13    2
    24    13    14    1
    25    14    15   ar
    26    15    16   ar
    27    16    17   ar
    28    17    18   ar
    29    18    19   ar
    30     4     5    1
    31     5     6    1
    32     4     7    1
    33     7     8    1
    34    32    22   ar
    35     6     1    1
    36    31    25   ar
    37     8     1    1
    38    34    30    1
    39    19    14   ar
    40    35    36    1
    41     9    10    1
@<TRIPOS>MOLECULE
*****
 36 41 0 0 0
SMALL
GASTEIGER

@<TRIPOS>ATOM
      1 C         138.7621  138.9950  164.1440 C.3     1  UNL1        0.0955
      2 C         138.1139  140.3042  163.8034 C.3     1  UNL1        0.0287
      3 C         137.6063  140.5507  162.4136 C.3     1  UNL1        0.0193
      4 C         137.7470  139.4881  161.3643 C.3     1  UNL1        0.0700
      5 C         138.3951  138.1789  161.7049 C.3     1  UNL1        0.0193
      6 C         138.9027  137.9324  163.0947 C.3     1  UNL1        0.0287
      7 C         138.0404  139.3069  162.1121 C.3     1  UNL1        0.1562
      8 O         138.4993  139.0840  163.3688 O.3     1  UNL1       -0.3571
      9 N         137.2394  139.7346  159.9745 N.3     1  UNL1       -0.2939
     10 H         136.4147  140.3282  160.0631 H       1  UNL1        0.1235
     11 C         138.1299  140.3798  158.9544 C.3     1  UNL1        0.0954
     12 C         139.5713  140.6425  159.2759 C.2     1  UNL1       -0.0090
     13 C         139.9710  141.9317  159.9303 C.2     1  UNL1       -0.0032
     14 C         141.4124  142.1942  160.2519 C.ar    1  UNL1       -0.0003
     15 C         142.4809  141.8159  159.2695 C.ar    1  UNL1       -0.0000
     16 C         143.9224  142.0785  159.5910 C.ar    1  UNL1       -0.0000
     17 C         144.2951  142.7194  160.8950 C.ar    1  UNL1       -0.0000
     18 C         143.2266  143.0977  161.8773 C.ar    1  UNL1       -0.0000
     19 C         141.7852  142.8351  161.5558 C.ar    1  UNL1       -0.0000
     20 C         139.2697  138.7485  165.5338 C.3     1  UNL1        0.0604
     21 O         138.1230  140.0642  170.3543 O.2     1  UNL1       -0.2670
     22 C         139.3620  140.7382  169.8438 C.ar    1  UNL1        0.2611
     23 C         140.1196  141.6840  170.7278 C.ar    1  UNL1        0.0623
     24 C         141.3586  142.3580  170.2174 C.ar    1  UNL1        0.0254
     25 C         141.8399  142.0863  168.8230 C.ar    1  UNL1        0.0972
     26 N         143.0281  142.6101  168.0585 N.ar    1  UNL1       -0.2400
     27 C         143.3863  142.2421  166.6492 C.ar    1  UNL1        0.1282
     28 C         142.5289  141.2773  165.8850 C.ar    1  UNL1        0.1588
     29 F         142.8871  140.9093  164.4756 F       1  UNL1       -0.2027
     30 C         141.3134  140.6804  166.5302 C.ar    1  UNL1        0.0500
     31 C         141.0823  141.1406  167.9390 C.ar    1  UNL1        0.0806
     32 N         139.8433  140.4666  168.4494 N.ar    1  UNL1       -0.2915
     33 C         139.3087  139.5898  167.3560 C.3     1  UNL1        0.1402
     34 C         140.2173  139.7219  166.1699 C.3     1  UNL1        0.1335
     35 O         140.9278  139.6506  164.8507 O.3     1  UNL1       -0.3806
     36 H         140.4545  139.0431  164.2610 H       1  UNL1        0.2108
@<TRIPOS>BOND
     1    21    22    2
     2    22    23   ar
     3    23    24   ar
     4    24    25   ar
     5    25    26   ar
     6    26    27   ar
     7    27    28   ar
     8    28    29    1
     9    28    30   ar
    10    30    31   ar
    11    31    32   ar
    12    32    33    1
    13    33    34    1
    14    34    35    1
    15    34    20    1
    16    20     1    1
    17     1     2    1
    18     2     3    1
    19     3     4    1
    20     4     9    1
    21     9    11    1
    22    11    12    1
    23    12    13    2
    24    13    14    1
    25    14    15   ar
    26    15    16   ar
    27    16    17   ar
    28    17    18   ar
    29    18    19   ar
    30     4     5    1
    31     5     6    1
    32     4     7    1
    33     7     8    1
    34    32    22   ar
    35     6     1    1
    36    31    25   ar
    37     8     1    1
    38    34    30    1
    39    19    14   ar
    40    35    36    1
    41     9    10    1
