@<TRIPOS>MOLECULE
*****
 35 39 0 0 0
SMALL
GASTEIGER

@<TRIPOS>ATOM
      1 C         139.6702  142.3000  161.5702 C.ar    1  UNL1        0.0329
      2 C         138.1764  142.3812  161.4614 C.ar    1  UNL1        0.1001
      3 N         137.3283  142.2849  162.6949 N.ar    1  UNL1       -0.2420
      4 C         137.9740  142.1075  164.0371 C.ar    1  UNL1        0.1078
      5 C         139.4678  142.0264  164.1459 C.ar    1  UNL1        0.1207
      6 C         140.3159  142.1226  162.9125 C.ar    1  UNL1        0.0583
      7 C         140.1135  141.8490  165.4881 C.2     1  UNL1        0.3780
      8 N         140.7340  140.5862  166.0081 N.2     1  UNL1       -0.0308
      9 C         141.2561  140.8599  167.3874 C.2     1  UNL1        0.2318
     10 C         141.9641  139.9903  168.3835 C.2     1  UNL1        0.0456
     11 C         142.3744  140.5527  169.7121 C.2     1  UNL1       -0.0219
     12 C         143.0825  139.6830  170.7083 C.3     1  UNL1        0.0308
     13 C         142.0766  141.9847  170.0447 C.2     1  UNL1       -0.0214
     14 C         141.3686  142.8544  169.0486 C.3     1  UNL1        0.1034
     15 C         140.9583  142.2920  167.7199 C.2     1  UNL1        0.2178
     16 N         140.2522  142.9032  166.5461 N.2     1  UNL1       -0.0346
     17 N         141.8098  142.0415  163.0212 N.pl3   1  UNL1       -0.3071
     18 C         142.6099  143.2795  163.2991 C.3     1  UNL1        0.0921
     19 C         144.1037  143.1984  163.4079 C.3     1  UNL1        0.0369
     20 C         144.7976  141.8793  163.2388 C.3     1  UNL1        0.0542
     21 N         146.2914  141.7982  163.3475 N.3     1  UNL1       -0.3221
     22 C         143.9975  140.6413  162.9609 C.3     1  UNL1        0.0369
     23 C         142.5036  140.7224  162.8521 C.3     1  UNL1        0.0921
     24 H         146.6693  142.7263  163.5376 H       1  UNL1        0.1188
     25 H         146.6775  141.4468  162.4713 H       1  UNL1        0.1188
     26 C         141.6331  141.2680  158.2790 C.ar    1  UNL1        0.1418
     27 C         142.2148  142.5888  157.8699 C.ar    1  UNL1        0.0737
     28 C         141.9483  143.8133  158.6943 C.ar    1  UNL1        0.1418
     29 C         141.1001  143.7170  159.9277 C.ar    1  UNL1        0.0372
     30 C         140.5184  142.3963  160.3368 C.ar    1  UNL1        0.0087
     31 C         140.7849  141.1718  159.5124 C.ar    1  UNL1        0.0372
     32 C         142.6463  138.8867  158.0498 C.3     1  UNL1        0.2525
     33 O         141.8996  140.0435  157.4546 O.3     1  UNL1       -0.4713
     34 O         142.5299  145.1340  158.2852 O.3     1  UNL1       -0.4713
     35 C         141.9153  145.9067  157.1560 C.3     1  UNL1        0.2525
@<TRIPOS>BOND
     1    32    33    1
     2    33    26    1
     3    26    27   ar
     4    27    28   ar
     5    28    34    1
     6    34    35    1
     7    28    29   ar
     8    29    30   ar
     9    30     1    1
    10     1     2   ar
    11     2     3   ar
    12     3     4   ar
    13     4     5   ar
    14     5     7    1
    15     7     8    2
    16     8     9    1
    17     9    10    2
    18    10    11    1
    19    11    12    1
    20    11    13    2
    21    13    14    1
    22    14    15    1
    23    15    16    2
    24     5     6   ar
    25     6    17    1
    26    17    18    1
    27    18    19    1
    28    19    20    1
    29    20    21    1
    30    20    22    1
    31    22    23    1
    32    30    31   ar
    33    31    26   ar
    34     6     1   ar
    35    23    17    1
    36    16     7    1
    37    15     9    1
    38    21    24    1
    39    21    25    1
@<TRIPOS>MOLECULE
*****
 35 39 0 0 0
SMALL
GASTEIGER

@<TRIPOS>ATOM
      1 C         139.6961  142.2636  161.5473 C.ar    1  UNL1        0.0329
      2 C         138.2025  142.3320  161.4274 C.ar    1  UNL1        0.1001
      3 N         137.3464  142.2351  162.6552 N.ar    1  UNL1       -0.2420
      4 C         137.9839  142.0698  164.0029 C.ar    1  UNL1        0.1078
      5 C         139.4775  142.0014  164.1228 C.ar    1  UNL1        0.1207
      6 C         140.3336  142.0983  162.8950 C.ar    1  UNL1        0.0583
      7 C         140.1150  141.8361  165.4705 C.2     1  UNL1        0.3780
      8 N         140.7552  140.5853  165.9956 N.2     1  UNL1       -0.0308
      9 C         141.2601  140.8687  167.3793 C.2     1  UNL1        0.2318
     10 C         141.9762  140.0126  168.3814 C.2     1  UNL1        0.0456
     11 C         142.3642  140.5824  169.7135 C.2     1  UNL1       -0.0219
     12 C         143.0804  139.7263  170.7157 C.3     1  UNL1        0.0308
     13 C         142.0361  142.0084  170.0437 C.2     1  UNL1       -0.0214
     14 C         141.3200  142.8645  169.0416 C.3     1  UNL1        0.1034
     15 C         140.9320  142.2947  167.7095 C.2     1  UNL1        0.2178
     16 N         140.2243  142.8925  166.5297 N.2     1  UNL1       -0.0346
     17 N         141.8273  142.0299  163.0148 N.pl3   1  UNL1       -0.3071
     18 C         142.6144  143.2740  163.3024 C.3     1  UNL1        0.0921
     19 C         144.1080  143.2057  163.4222 C.3     1  UNL1        0.0369
     20 C         144.8146  141.8931  163.2544 C.3     1  UNL1        0.0542
     21 N         146.3082  141.8248  163.3742 N.3     1  UNL1       -0.3221
     22 C         144.0276  140.6490  162.9668 C.3     1  UNL1        0.0369
     23 C         142.5339  140.7174  162.8470 C.3     1  UNL1        0.0921
     24 H         146.6766  142.7556  163.5699 H       1  UNL1        0.1188
     25 H         146.7040  141.4795  162.4999 H       1  UNL1        0.1188
     26 C         141.9936  143.7782  158.6876 C.ar    1  UNL1        0.1418
     27 C         142.2647  142.5543  157.8637 C.ar    1  UNL1        0.0737
     28 C         141.6796  141.2336  158.2677 C.ar    1  UNL1        0.1418
     29 C         140.8234  141.1367  159.4956 C.ar    1  UNL1        0.0372
     30 C         140.5523  142.3605  160.3194 C.ar    1  UNL1        0.0087
     31 C         141.1374  143.6813  159.9154 C.ar    1  UNL1        0.0372
     32 C         141.9085  145.9238  157.2249 C.3     1  UNL1        0.2525
     33 O         142.5786  145.0990  158.2836 O.3     1  UNL1       -0.4713
     34 O         141.9507  140.0097  157.4439 O.3     1  UNL1       -0.4713
     35 C         142.5474  138.7917  158.0843 C.3     1  UNL1        0.2525
@<TRIPOS>BOND
     1    32    33    1
     2    33    26    1
     3    26    27   ar
     4    27    28   ar
     5    28    34    1
     6    34    35    1
     7    28    29   ar
     8    29    30   ar
     9    30     1    1
    10     1     2   ar
    11     2     3   ar
    12     3     4   ar
    13     4     5   ar
    14     5     7    1
    15     7     8    2
    16     8     9    1
    17     9    10    2
    18    10    11    1
    19    11    12    1
    20    11    13    2
    21    13    14    1
    22    14    15    1
    23    15    16    2
    24     5     6   ar
    25     6    17    1
    26    17    18    1
    27    18    19    1
    28    19    20    1
    29    20    21    1
    30    20    22    1
    31    22    23    1
    32    30    31   ar
    33    31    26   ar
    34     6     1   ar
    35    23    17    1
    36    16     7    1
    37    15     9    1
    38    21    24    1
    39    21    25    1
@<TRIPOS>MOLECULE
*****
 35 39 0 0 0
SMALL
GASTEIGER

@<TRIPOS>ATOM
      1 C         139.4359  142.3514  163.8894 C.ar    1  UNL1        0.0329
      2 C         138.2032  143.1012  163.4793 C.ar    1  UNL1        0.1001
      3 N         138.0373  143.5515  162.0582 N.ar    1  UNL1       -0.2420
      4 C         139.1040  143.2520  161.0471 C.ar    1  UNL1        0.1078
      5 C         140.3368  142.5022  161.4572 C.ar    1  UNL1        0.1207
      6 C         140.5027  142.0519  162.8783 C.ar    1  UNL1        0.0583
      7 C         141.4035  142.2028  160.4461 C.2     1  UNL1        0.3780
      8 N         142.5848  143.0705  160.1274 N.2     1  UNL1       -0.0308
      9 C         143.3877  142.3870  159.0605 C.2     1  UNL1        0.2318
     10 C         144.6541  142.7728  158.3552 C.2     1  UNL1        0.0456
     11 C         145.2354  141.8684  157.3093 C.2     1  UNL1       -0.0219
     12 C         146.5018  142.2541  156.6039 C.3     1  UNL1        0.0308
     13 C         144.5503  140.5782  156.9685 C.2     1  UNL1       -0.0214
     14 C         143.2839  140.1925  157.6738 C.3     1  UNL1        0.1034
     15 C         142.7026  141.0969  158.7198 C.2     1  UNL1        0.2178
     16 N         141.4763  140.9830  159.5761 N.2     1  UNL1       -0.0346
     17 N         141.7355  141.3021  163.2884 N.pl3   1  UNL1       -0.3071
     18 C         142.9565  142.0519  163.7321 C.3     1  UNL1        0.0921
     19 C         144.1892  141.3022  164.1422 C.3     1  UNL1        0.0369
     20 C         144.2010  139.8026  164.1085 C.3     1  UNL1        0.0542
     21 N         145.4338  139.0529  164.5186 N.3     1  UNL1       -0.3221
     22 C         142.9800  139.0528  163.6648 C.3     1  UNL1        0.0369
     23 C         141.7473  139.8026  163.2547 C.3     1  UNL1        0.0921
     24 H         146.1608  139.7155  164.7883 H       1  UNL1        0.1188
     25 H         145.7631  138.4864  163.7369 H       1  UNL1        0.1188
     26 C         140.5436  142.2940  167.6999 C.ar    1  UNL1        0.1418
     27 C         139.9340  141.0004  168.1529 C.ar    1  UNL1        0.0737
     28 C         139.1584  140.1572  167.1847 C.ar    1  UNL1        0.1418
     29 C         138.9924  140.6075  165.7635 C.ar    1  UNL1        0.0372
     30 C         139.6020  141.9010  165.3106 C.ar    1  UNL1        0.0087
     31 C         140.3775  142.7443  166.2788 C.ar    1  UNL1        0.0372
     32 C         140.6248  143.7628  169.8414 C.3     1  UNL1        0.2525
     33 O         141.3191  143.1372  168.6681 O.3     1  UNL1       -0.4713
     34 O         138.5489  138.8636  167.6376 O.3     1  UNL1       -0.4713
     35 C         137.7471  138.0357  166.6776 C.3     1  UNL1        0.2525
@<TRIPOS>BOND
     1    32    33    1
     2    33    26    1
     3    26    27   ar
     4    27    28   ar
     5    28    34    1
     6    34    35    1
     7    28    29   ar
     8    29    30   ar
     9    30     1    1
    10     1     2   ar
    11     2     3   ar
    12     3     4   ar
    13     4     5   ar
    14     5     7    1
    15     7     8    2
    16     8     9    1
    17     9    10    2
    18    10    11    1
    19    11    12    1
    20    11    13    2
    21    13    14    1
    22    14    15    1
    23    15    16    2
    24     5     6   ar
    25     6    17    1
    26    17    18    1
    27    18    19    1
    28    19    20    1
    29    20    21    1
    30    20    22    1
    31    22    23    1
    32    30    31   ar
    33    31    26   ar
    34     6     1   ar
    35    23    17    1
    36    16     7    1
    37    15     9    1
    38    21    24    1
    39    21    25    1
@<TRIPOS>MOLECULE
*****
 35 39 0 0 0
SMALL
GASTEIGER

@<TRIPOS>ATOM
      1 C         142.7057  140.4011  164.9110 C.ar    1  UNL1        0.0329
      2 C         143.9309  139.5502  165.0684 C.ar    1  UNL1        0.1001
      3 N         144.8196  139.2897  163.8885 N.ar    1  UNL1       -0.2420
      4 C         144.4832  139.8802  162.5513 C.ar    1  UNL1        0.1078
      5 C         143.2580  140.7311  162.3939 C.ar    1  UNL1        0.1207
      6 C         142.3693  140.9916  163.5738 C.ar    1  UNL1        0.0583
      7 C         142.9216  141.3216  161.0567 C.2     1  UNL1        0.3780
      8 N         143.2583  142.7086  160.5954 N.2     1  UNL1       -0.0308
      9 C         142.7342  142.8730  159.1996 C.2     1  UNL1        0.2318
     10 C         142.7732  144.0271  158.2423 C.2     1  UNL1        0.0456
     11 C         142.1516  143.8956  156.8835 C.2     1  UNL1       -0.0219
     12 C         142.1905  145.0498  155.9261 C.3     1  UNL1        0.0308
     13 C         141.4910  142.6102  156.4821 C.2     1  UNL1       -0.0214
     14 C         141.4520  141.4561  157.4394 C.3     1  UNL1        0.1034
     15 C         142.0737  141.5875  158.7981 C.2     1  UNL1        0.2178
     16 N         142.1895  140.6287  159.9459 N.2     1  UNL1       -0.0346
     17 N         141.1440  141.8425  163.4165 N.pl3   1  UNL1       -0.3071
     18 C         141.2174  143.3181  163.6756 C.3     1  UNL1        0.0921
     19 C         139.9922  144.1691  163.5183 C.3     1  UNL1        0.0369
     20 C         138.6936  143.5444  163.1019 C.3     1  UNL1        0.0542
     21 N         137.4684  144.3954  162.9446 N.3     1  UNL1       -0.3221
     22 C         138.6202  142.0688  162.8428 C.3     1  UNL1        0.0369
     23 C         139.8454  141.2178  163.0001 C.3     1  UNL1        0.0921
     24 H         137.6985  145.3657  163.1590 H       1  UNL1        0.1188
     25 H         136.7433  144.0688  163.5834 H       1  UNL1        0.1188
     26 C         139.7356  140.0466  167.5193 C.ar    1  UNL1        0.1418
     27 C         140.0391  141.1825  168.4507 C.ar    1  UNL1        0.0737
     28 C         141.2315  142.0580  168.2023 C.ar    1  UNL1        0.1418
     29 C         142.1204  141.7975  167.0223 C.ar    1  UNL1        0.0372
     30 C         141.8168  140.6616  166.0910 C.ar    1  UNL1        0.0087
     31 C         140.6244  139.7861  166.3394 C.ar    1  UNL1        0.0372
     32 C         137.8539  138.4984  166.6177 C.3     1  UNL1        0.2525
     33 O         138.5432  139.1711  167.7677 O.3     1  UNL1       -0.4713
     34 O         141.5351  143.1939  169.1336 O.3     1  UNL1       -0.4713
     35 C         140.4248  143.8600  169.8909 C.3     1  UNL1        0.2525
@<TRIPOS>BOND
     1    32    33    1
     2    33    26    1
     3    26    27   ar
     4    27    28   ar
     5    28    34    1
     6    34    35    1
     7    28    29   ar
     8    29    30   ar
     9    30     1    1
    10     1     2   ar
    11     2     3   ar
    12     3     4   ar
    13     4     5   ar
    14     5     7    1
    15     7     8    2
    16     8     9    1
    17     9    10    2
    18    10    11    1
    19    11    12    1
    20    11    13    2
    21    13    14    1
    22    14    15    1
    23    15    16    2
    24     5     6   ar
    25     6    17    1
    26    17    18    1
    27    18    19    1
    28    19    20    1
    29    20    21    1
    30    20    22    1
    31    22    23    1
    32    30    31   ar
    33    31    26   ar
    34     6     1   ar
    35    23    17    1
    36    16     7    1
    37    15     9    1
    38    21    24    1
    39    21    25    1
@<TRIPOS>MOLECULE
*****
 35 39 0 0 0
SMALL
GASTEIGER

@<TRIPOS>ATOM
      1 C         141.4223  139.5657  160.8683 C.ar    1  UNL1        0.0329
      2 C         142.3560  138.3971  160.7568 C.ar    1  UNL1        0.1001
      3 N         142.9112  137.7598  161.9960 N.ar    1  UNL1       -0.2420
      4 C         142.5326  138.2912  163.3467 C.ar    1  UNL1        0.1078
      5 C         141.5989  139.4598  163.4582 C.ar    1  UNL1        0.1207
      6 C         141.0438  140.0971  162.2190 C.ar    1  UNL1        0.0583
      7 C         141.2204  139.9912  164.8089 C.2     1  UNL1        0.3780
      8 N         141.6026  141.3292  165.3688 N.2     1  UNL1       -0.0308
      9 C         141.0116  141.4428  166.7428 C.2     1  UNL1        0.2318
     10 C         141.0575  142.5369  167.7678 C.2     1  UNL1        0.0456
     11 C         140.3560  142.3631  169.0822 C.2     1  UNL1       -0.0219
     12 C         140.4019  143.4573  170.1073 C.3     1  UNL1        0.0308
     13 C         139.6085  141.0952  169.3715 C.2     1  UNL1       -0.0214
     14 C         139.5626  140.0011  168.3464 C.3     1  UNL1        0.1034
     15 C         140.2641  140.1749  167.0321 C.2     1  UNL1        0.2178
     16 N         140.3932  139.2778  165.8369 N.2     1  UNL1       -0.0346
     17 N         140.1101  141.2658  162.3305 N.pl3   1  UNL1       -0.3071
     18 C         140.6460  142.6644  162.2489 C.3     1  UNL1        0.0921
     19 C         139.7124  143.8330  162.3603 C.3     1  UNL1        0.0369
     20 C         138.2427  143.6031  162.5533 C.3     1  UNL1        0.0542
     21 N         137.3090  144.7718  162.6648 N.3     1  UNL1       -0.3221
     22 C         137.7067  142.2045  162.6349 C.3     1  UNL1        0.0369
     23 C         138.6404  141.0358  162.5234 C.3     1  UNL1        0.0921
     24 H         137.8397  145.6395  162.5884 H       1  UNL1        0.1188
     25 H         136.8335  144.7423  163.5667 H       1  UNL1        0.1188
     26 C         141.1032  141.8903  157.6676 C.ar    1  UNL1        0.1418
     27 C         139.7568  141.4777  157.1507 C.ar    1  UNL1        0.0737
     28 C         138.9656  140.4278  157.8730 C.ar    1  UNL1        0.1418
     29 C         139.5208  139.7905  159.1122 C.ar    1  UNL1        0.0372
     30 C         140.8671  140.2031  159.6291 C.ar    1  UNL1        0.0087
     31 C         141.6583  141.2530  158.9068 C.ar    1  UNL1        0.0372
     32 C         142.9893  143.6771  157.6582 C.3     1  UNL1        0.2525
     33 O         141.8944  142.9402  156.9453 O.3     1  UNL1       -0.4713
     34 O         137.6193  140.0152  157.3561 O.3     1  UNL1       -0.4713
     35 C         136.7204  141.0287  156.7121 C.3     1  UNL1        0.2525
@<TRIPOS>BOND
     1    32    33    1
     2    33    26    1
     3    26    27   ar
     4    27    28   ar
     5    28    34    1
     6    34    35    1
     7    28    29   ar
     8    29    30   ar
     9    30     1    1
    10     1     2   ar
    11     2     3   ar
    12     3     4   ar
    13     4     5   ar
    14     5     7    1
    15     7     8    2
    16     8     9    1
    17     9    10    2
    18    10    11    1
    19    11    12    1
    20    11    13    2
    21    13    14    1
    22    14    15    1
    23    15    16    2
    24     5     6   ar
    25     6    17    1
    26    17    18    1
    27    18    19    1
    28    19    20    1
    29    20    21    1
    30    20    22    1
    31    22    23    1
    32    30    31   ar
    33    31    26   ar
    34     6     1   ar
    35    23    17    1
    36    16     7    1
    37    15     9    1
    38    21    24    1
    39    21    25    1
@<TRIPOS>MOLECULE
*****
 35 39 0 0 0
SMALL
GASTEIGER

@<TRIPOS>ATOM
      1 C         140.1482  139.7378  160.5507 C.ar    1  UNL1        0.0329
      2 C         138.7379  139.3186  160.2585 C.ar    1  UNL1        0.1001
      3 N         137.7187  139.2971  161.3588 N.ar    1  UNL1       -0.2420
      4 C         138.1097  139.6948  162.7513 C.ar    1  UNL1        0.1078
      5 C         139.5199  140.1141  163.0434 C.ar    1  UNL1        0.1207
      6 C         140.5392  140.1356  161.9431 C.ar    1  UNL1        0.0583
      7 C         139.9109  140.5119  164.4359 C.2     1  UNL1        0.3780
      8 N         139.7551  141.8761  165.0397 N.2     1  UNL1       -0.0308
      9 C         140.2742  141.8226  166.4460 C.2     1  UNL1        0.2318
     10 C         140.3745  142.8657  167.5192 C.2     1  UNL1        0.0456
     11 C         140.9515  142.5116  168.8577 C.2     1  UNL1       -0.0219
     12 C         141.0517  143.5547  169.9310 C.3     1  UNL1        0.0308
     13 C         141.4282  141.1143  169.1230 C.2     1  UNL1       -0.0214
     14 C         141.3280  140.0712  168.0498 C.3     1  UNL1        0.1034
     15 C         140.7510  140.4254  166.7113 C.2     1  UNL1        0.2178
     16 N         140.5265  139.6153  165.4689 N.2     1  UNL1       -0.0346
     17 N         141.9495  140.5549  162.2353 N.pl3   1  UNL1       -0.3071
     18 C         142.9919  139.5200  162.5392 C.3     1  UNL1        0.0921
     19 C         144.4021  139.9392  162.8313 C.3     1  UNL1        0.0369
     20 C         144.7701  141.3933  162.8195 C.3     1  UNL1        0.0542
     21 N         146.1803  141.8125  163.1117 N.3     1  UNL1       -0.3221
     22 C         143.7277  142.4282  162.5156 C.3     1  UNL1        0.0369
     23 C         142.3173  142.0090  162.2235 C.3     1  UNL1        0.0921
     24 H         146.7497  140.9862  163.2947 H       1  UNL1        0.1188
     25 H         146.1915  142.4213  163.9300 H       1  UNL1        0.1188
     26 C         142.6547  141.0899  157.7868 C.ar    1  UNL1        0.1418
     27 C         143.2061  139.8024  157.2498 C.ar    1  UNL1        0.0737
     28 C         142.7381  138.4933  157.8132 C.ar    1  UNL1        0.1418
     29 C         141.7188  138.4718  158.9135 C.ar    1  UNL1        0.0372
     30 C         141.1675  139.7593  159.4504 C.ar    1  UNL1        0.0087
     31 C         141.6355  141.0684  158.8871 C.ar    1  UNL1        0.0372
     32 C         142.8433  143.6754  157.9603 C.3     1  UNL1        0.2525
     33 O         143.1227  142.3990  157.2235 O.3     1  UNL1       -0.4713
     34 O         143.2894  137.2058  157.2762 O.3     1  UNL1       -0.4713
     35 C         142.4323  136.3228  156.4186 C.3     1  UNL1        0.2525
@<TRIPOS>BOND
     1    32    33    1
     2    33    26    1
     3    26    27   ar
     4    27    28   ar
     5    28    34    1
     6    34    35    1
     7    28    29   ar
     8    29    30   ar
     9    30     1    1
    10     1     2   ar
    11     2     3   ar
    12     3     4   ar
    13     4     5   ar
    14     5     7    1
    15     7     8    2
    16     8     9    1
    17     9    10    2
    18    10    11    1
    19    11    12    1
    20    11    13    2
    21    13    14    1
    22    14    15    1
    23    15    16    2
    24     5     6   ar
    25     6    17    1
    26    17    18    1
    27    18    19    1
    28    19    20    1
    29    20    21    1
    30    20    22    1
    31    22    23    1
    32    30    31   ar
    33    31    26   ar
    34     6     1   ar
    35    23    17    1
    36    16     7    1
    37    15     9    1
    38    21    24    1
    39    21    25    1
@<TRIPOS>MOLECULE
*****
 35 39 0 0 0
SMALL
GASTEIGER

@<TRIPOS>ATOM
      1 C         143.4361  141.6940  161.5863 C.ar    1  UNL1        0.0329
      2 C         144.9338  141.7682  161.5476 C.ar    1  UNL1        0.1001
      3 N         145.7177  141.7732  162.8264 N.ar    1  UNL1       -0.2420
      4 C         145.0039  141.7040  164.1439 C.ar    1  UNL1        0.1078
      5 C         143.5063  141.6298  164.1826 C.ar    1  UNL1        0.1207
      6 C         142.7224  141.6248  162.9038 C.ar    1  UNL1        0.0583
      7 C         142.7925  141.5606  165.5001 C.2     1  UNL1        0.3780
      8 N         142.1019  142.6997  166.1896 N.2     1  UNL1       -0.0308
      9 C         141.5266  142.1833  167.4750 C.2     1  UNL1        0.2318
     10 C         140.7410  142.8525  168.5635 C.2     1  UNL1        0.0456
     11 C         140.2904  142.0635  169.7569 C.2     1  UNL1       -0.0219
     12 C         139.5047  142.7327  170.8455 C.3     1  UNL1        0.0308
     13 C         140.6255  140.6051  169.8619 C.2     1  UNL1       -0.0214
     14 C         141.4112  139.9359  168.7734 C.3     1  UNL1        0.1034
     15 C         141.8617  140.7250  167.5800 C.2     1  UNL1        0.2178
     16 N         142.6441  140.3402  166.3594 N.2     1  UNL1       -0.0346
     17 N         141.2247  141.5506  162.9424 N.pl3   1  UNL1       -0.3071
     18 C         140.5401  140.2161  162.9594 C.3     1  UNL1        0.0921
     19 C         139.0424  140.1418  162.9980 C.3     1  UNL1        0.0369
     20 C         138.2293  141.4022  163.0196 C.3     1  UNL1        0.0542
     21 N         136.7317  141.3280  163.0582 N.3     1  UNL1       -0.3221
     22 C         138.9139  142.7367  163.0026 C.3     1  UNL1        0.0369
     23 C         140.4116  142.8109  162.9640 C.3     1  UNL1        0.0921
     24 H         136.4398  140.3506  163.0653 H       1  UNL1        0.1188
     25 H         136.3469  141.7918  162.2353 H       1  UNL1        0.1188
     26 C         141.5216  140.3834  158.3665 C.ar    1  UNL1        0.1418
     27 C         141.0843  141.6790  157.7497 C.ar    1  UNL1        0.0737
     28 C         141.4309  142.9795  158.4118 C.ar    1  UNL1        0.1418
     29 C         142.2149  142.9845  159.6907 C.ar    1  UNL1        0.0372
     30 C         142.6522  141.6890  160.3074 C.ar    1  UNL1        0.0087
     31 C         142.3055  140.3884  159.6453 C.ar    1  UNL1        0.0372
     32 C         142.1282  137.9269  157.7768 C.3     1  UNL1        0.2525
     33 O         141.1750  139.0828  157.7044 O.3     1  UNL1       -0.4713
     34 O         140.9936  144.2750  157.7951 O.3     1  UNL1       -0.4713
     35 C         141.9178  145.4564  157.7975 C.3     1  UNL1        0.2525
@<TRIPOS>BOND
     1    32    33    1
     2    33    26    1
     3    26    27   ar
     4    27    28   ar
     5    28    34    1
     6    34    35    1
     7    28    29   ar
     8    29    30   ar
     9    30     1    1
    10     1     2   ar
    11     2     3   ar
    12     3     4   ar
    13     4     5   ar
    14     5     7    1
    15     7     8    2
    16     8     9    1
    17     9    10    2
    18    10    11    1
    19    11    12    1
    20    11    13    2
    21    13    14    1
    22    14    15    1
    23    15    16    2
    24     5     6   ar
    25     6    17    1
    26    17    18    1
    27    18    19    1
    28    19    20    1
    29    20    21    1
    30    20    22    1
    31    22    23    1
    32    30    31   ar
    33    31    26   ar
    34     6     1   ar
    35    23    17    1
    36    16     7    1
    37    15     9    1
    38    21    24    1
    39    21    25    1
@<TRIPOS>MOLECULE
*****
 35 39 0 0 0
SMALL
GASTEIGER

@<TRIPOS>ATOM
      1 C         140.0178  139.7585  160.9244 C.ar    1  UNL1        0.0329
      2 C         138.5968  139.3133  160.7443 C.ar    1  UNL1        0.1001
      3 N         137.6957  139.1808  161.9360 N.ar    1  UNL1       -0.2420
      4 C         138.2155  139.4935  163.3079 C.ar    1  UNL1        0.1078
      5 C         139.6365  139.9387  163.4880 C.ar    1  UNL1        0.1207
      6 C         140.5377  140.0712  162.2962 C.ar    1  UNL1        0.0583
      7 C         140.1564  140.2514  164.8598 C.2     1  UNL1        0.3780
      8 N         140.9846  139.3412  165.7175 N.2     1  UNL1       -0.0308
      9 C         141.2793  140.0565  167.0026 C.2     1  UNL1        0.2318
     10 C         142.0525  139.6511  168.2224 C.2     1  UNL1        0.0456
     11 C         142.1797  140.5981  169.3787 C.2     1  UNL1       -0.0219
     12 C         142.9529  140.1927  170.5985 C.3     1  UNL1        0.0308
     13 C         141.5337  141.9503  169.3152 C.2     1  UNL1       -0.0214
     14 C         140.7605  142.3557  168.0955 C.3     1  UNL1        0.1034
     15 C         140.6333  141.4087  166.9392 C.2     1  UNL1        0.2178
     16 N         139.9393  141.5292  165.6149 N.2     1  UNL1       -0.0346
     17 N         141.9588  140.5164  162.4763 N.pl3   1  UNL1       -0.3071
     18 C         142.2961  141.9777  162.4484 C.3     1  UNL1        0.0921
     19 C         143.7171  142.4230  162.6284 C.3     1  UNL1        0.0369
     20 C         144.8009  141.4069  162.8364 C.3     1  UNL1        0.0542
     21 N         146.2219  141.8521  163.0165 N.3     1  UNL1       -0.3221
     22 C         144.4635  139.9456  162.8643 C.3     1  UNL1        0.0369
     23 C         143.0424  139.5003  162.6843 C.3     1  UNL1        0.0921
     24 H         146.2677  142.8700  162.9699 H       1  UNL1        0.1188
     25 H         146.7999  141.4516  162.2776 H       1  UNL1        0.1188
     26 C         142.5540  138.8240  158.0184 C.ar    1  UNL1        0.1418
     27 C         142.7215  140.1560  157.3491 C.ar    1  UNL1        0.0737
     28 C         141.9879  141.3554  157.8716 C.ar    1  UNL1        0.1418
     29 C         141.0866  141.2229  159.0634 C.ar    1  UNL1        0.0372
     30 C         140.9191  139.8910  159.7326 C.ar    1  UNL1        0.0087
     31 C         141.6528  138.6915  159.2101 C.ar    1  UNL1        0.0372
     32 C         142.5663  136.6101  156.6588 C.3     1  UNL1        0.2525
     33 O         143.2877  137.6245  157.4958 O.3     1  UNL1       -0.4713
     34 O         142.1554  142.6874  157.2024 O.3     1  UNL1       -0.4713
     35 C         142.9202  143.7803  157.8882 C.3     1  UNL1        0.2525
@<TRIPOS>BOND
     1    32    33    1
     2    33    26    1
     3    26    27   ar
     4    27    28   ar
     5    28    34    1
     6    34    35    1
     7    28    29   ar
     8    29    30   ar
     9    30     1    1
    10     1     2   ar
    11     2     3   ar
    12     3     4   ar
    13     4     5   ar
    14     5     7    1
    15     7     8    2
    16     8     9    1
    17     9    10    2
    18    10    11    1
    19    11    12    1
    20    11    13    2
    21    13    14    1
    22    14    15    1
    23    15    16    2
    24     5     6   ar
    25     6    17    1
    26    17    18    1
    27    18    19    1
    28    19    20    1
    29    20    21    1
    30    20    22    1
    31    22    23    1
    32    30    31   ar
    33    31    26   ar
    34     6     1   ar
    35    23    17    1
    36    16     7    1
    37    15     9    1
    38    21    24    1
    39    21    25    1
@<TRIPOS>MOLECULE
*****
 35 39 0 0 0
SMALL
GASTEIGER

@<TRIPOS>ATOM
      1 C         140.0171  141.8739  160.9443 C.ar    1  UNL1        0.0329
      2 C         138.7320  142.4939  160.4816 C.ar    1  UNL1        0.1001
      3 N         137.7160  142.9518  161.4856 N.ar    1  UNL1       -0.2420
      4 C         137.9851  142.7896  162.9523 C.ar    1  UNL1        0.1078
      5 C         139.2701  142.1696  163.4151 C.ar    1  UNL1        0.1207
      6 C         140.2861  141.7117  162.4111 C.ar    1  UNL1        0.0583
      7 C         139.5392  142.0074  164.8818 C.2     1  UNL1        0.3780
      8 N         139.3230  140.7592  165.6851 N.2     1  UNL1       -0.0308
      9 C         139.7219  141.0453  167.1026 C.2     1  UNL1        0.2318
     10 C         139.7235  140.1923  168.3364 C.2     1  UNL1        0.0456
     11 C         140.1878  140.7644  169.6429 C.2     1  UNL1       -0.0219
     12 C         140.1895  139.9114  170.8769 C.3     1  UNL1        0.0308
     13 C         140.6505  142.1894  169.7156 C.2     1  UNL1       -0.0214
     14 C         140.6488  143.0424  168.4818 C.3     1  UNL1        0.1034
     15 C         140.1845  142.4703  167.1753 C.2     1  UNL1        0.2178
     16 N         140.0716  143.0649  165.8028 N.2     1  UNL1       -0.0346
     17 N         141.5712  141.0917  162.8738 N.pl3   1  UNL1       -0.3071
     18 C         141.6656  139.6052  163.0512 C.3     1  UNL1        0.0921
     19 C         142.9506  138.9851  163.5138 C.3     1  UNL1        0.0369
     20 C         144.1414  139.8515  163.7992 C.3     1  UNL1        0.0542
     21 N         145.4265  139.2314  164.2619 N.3     1  UNL1       -0.3221
     22 C         144.0471  141.3380  163.6218 C.3     1  UNL1        0.0369
     23 C         142.7620  141.9581  163.1591 C.3     1  UNL1        0.0921
     24 H         145.3119  138.2199  164.3268 H       1  UNL1        0.1188
     25 H         145.6737  139.6051  165.1782 H       1  UNL1        0.1188
     26 C         141.9524  139.5830  158.3451 C.ar    1  UNL1        0.1418
     27 C         143.0653  140.5002  157.9323 C.ar    1  UNL1        0.0737
     28 C         143.1620  141.8754  158.5236 C.ar    1  UNL1        0.1418
     29 C         142.1459  142.3333  159.5276 C.ar    1  UNL1        0.0372
     30 C         141.0332  141.4160  159.9403 C.ar    1  UNL1        0.0087
     31 C         140.9364  140.0409  159.3490 C.ar    1  UNL1        0.0372
     32 C         142.9163  137.7202  156.8117 C.3     1  UNL1        0.2525
     33 O         141.8557  138.2078  157.7538 O.3     1  UNL1       -0.4713
     34 O         144.2748  142.7926  158.1109 O.3     1  UNL1       -0.4713
     35 C         145.4797  142.2411  157.4082 C.3     1  UNL1        0.2525
@<TRIPOS>BOND
     1    32    33    1
     2    33    26    1
     3    26    27   ar
     4    27    28   ar
     5    28    34    1
     6    34    35    1
     7    28    29   ar
     8    29    30   ar
     9    30     1    1
    10     1     2   ar
    11     2     3   ar
    12     3     4   ar
    13     4     5   ar
    14     5     7    1
    15     7     8    2
    16     8     9    1
    17     9    10    2
    18    10    11    1
    19    11    12    1
    20    11    13    2
    21    13    14    1
    22    14    15    1
    23    15    16    2
    24     5     6   ar
    25     6    17    1
    26    17    18    1
    27    18    19    1
    28    19    20    1
    29    20    21    1
    30    20    22    1
    31    22    23    1
    32    30    31   ar
    33    31    26   ar
    34     6     1   ar
    35    23    17    1
    36    16     7    1
    37    15     9    1
    38    21    24    1
    39    21    25    1
