@<TRIPOS>MOLECULE
*****
 41 46 0 0 0
SMALL
GASTEIGER

@<TRIPOS>ATOM
      1 C         141.3009  144.3606  159.9867 C.ar    1  UNL1        0.0658
      2 C         141.3741  143.0907  159.1917 C.ar    1  UNL1        0.0160
      3 C         141.0365  141.7803  159.8388 C.ar    1  UNL1        0.0037
      4 C         140.6258  141.7396  161.2809 C.ar    1  UNL1        0.0173
      5 C         140.5526  143.0095  162.0759 C.ar    1  UNL1        0.0616
      6 C         140.8901  144.3200  161.4288 C.ar    1  UNL1        0.0319
      7 C         140.7288  145.4000  162.4572 C.ar    1  UNL1        0.0214
      8 C         140.2914  144.7569  163.7399 C.ar    1  UNL1        0.0764
      9 N         140.1826  143.2795  163.5042 N.ar    1  UNL1       -0.3196
     10 C         141.1097  140.5103  159.0438 C.2     1  UNL1        0.0127
     11 C         142.1682  139.4544  159.1644 C.2     1  UNL1        0.0616
     12 N         141.8498  138.3648  158.1837 N.pl3   1  UNL1       -0.2954
     13 C         142.6467  137.1125  157.9677 C.3     1  UNL1        0.1129
     14 C         140.5946  138.7475  157.4571 C.3     1  UNL1        0.1750
     15 C         139.8090  138.0598  156.3800 C.2     1  UNL1        0.2679
     16 O         140.2664  136.7338  155.8485 O.2     1  UNL1       -0.2708
     17 N         138.5660  138.6981  155.8345 N.am    1  UNL1       -0.1762
     18 C         138.1086  140.0241  156.3661 C.2     1  UNL1        0.0884
     19 C         138.8941  140.7118  157.4431 C.2     1  UNL1        0.0158
     20 C         140.1372  140.0734  157.9886 C.2     1  UNL1        0.0071
     21 N         141.6385  145.6711  159.3396 N.pl3   1  UNL1       -0.2187
     22 H         142.1220  146.3613  159.8485 H       1  UNL1        0.1734
     23 S         141.2394  145.9299  157.9170 S.O2    1  UNL1        0.0539
     24 O         142.6844  145.9506  157.5153 O.2     1  UNL1       -0.1545
     25 O         139.7943  145.9092  158.3188 O.2     1  UNL1       -0.1545
     26 C         139.5583  146.9073  156.1942 C.3     1  UNL1        0.0292
     27 C         140.8402  146.1887  156.4945 C.3     1  UNL1        0.1724
     28 C         139.7752  142.2526  164.5188 C.3     1  UNL1        0.1385
     29 C         138.3418  142.6653  164.3610 C.3     1  UNL1        0.0350
     30 C         141.2086  141.8398  164.6766 C.ar    1  UNL1        0.0828
     31 C         142.2062  142.7996  165.2546 C.ar    1  UNL1        0.0169
     32 C         143.6396  142.3868  165.4124 C.ar    1  UNL1        0.0029
     33 C         144.0756  141.0145  164.9922 C.ar    1  UNL1        0.0207
     34 C         143.0781  140.0548  164.4143 C.ar    1  UNL1        0.0985
     35 N         141.6447  140.4675  164.2565 N.ar    1  UNL1       -0.2460
     36 C         139.3678  141.2256  165.5333 C.ar    1  UNL1        0.0828
     37 C         138.3974  140.1448  165.1586 C.ar    1  UNL1        0.0169
     38 C         137.9900  139.1178  166.1730 C.ar    1  UNL1        0.0029
     39 C         138.5530  139.1715  167.5624 C.ar    1  UNL1        0.0207
     40 C         139.5233  140.2523  167.9372 C.ar    1  UNL1        0.0985
     41 N         139.9307  141.2793  166.9226 N.ar    1  UNL1       -0.2460
@<TRIPOS>BOND
     1    26    27    1
     2    27    23    1
     3    23    24    2
     4    23    25    2
     5    23    21    1
     6    21     1    1
     7     1     2   ar
     8     2     3   ar
     9     3    10    1
    10    10    11    2
    11    11    12    1
    12    12    13    1
    13    12    14    1
    14    14    15    1
    15    15    16    2
    16    15    17    1
    17    17    18    2
    18    18    19    1
    19    19    20    2
    20     3     4   ar
    21     4     5   ar
    22     5     6   ar
    23     6     7   ar
    24     7     8   ar
    25     8     9   ar
    26     9    28    1
    27    28    29    1
    28    28    30    1
    29    30    31   ar
    30    31    32   ar
    31    32    33   ar
    32    33    34   ar
    33    34    35   ar
    34    28    36    1
    35    36    37   ar
    36    37    38   ar
    37    38    39   ar
    38    39    40   ar
    39    40    41   ar
    40     6     1   ar
    41    35    30   ar
    42    41    36   ar
    43    20    10    1
    44     9     5   ar
    45    20    14    1
    46    21    22    1
@<TRIPOS>MOLECULE
*****
 41 46 0 0 0
SMALL
GASTEIGER

@<TRIPOS>ATOM
      1 C         141.8293  144.3688  160.2061 C.ar    1  UNL1        0.0658
      2 C         142.1622  143.2452  159.2697 C.ar    1  UNL1        0.0160
      3 C         142.5245  141.8961  159.8159 C.ar    1  UNL1        0.0037
      4 C         142.5539  141.6703  161.2985 C.ar    1  UNL1        0.0173
      5 C         142.2209  142.7938  162.2349 C.ar    1  UNL1        0.0616
      6 C         141.8586  144.1431  161.6887 C.ar    1  UNL1        0.0319
      7 C         141.5800  145.0530  162.8482 C.ar    1  UNL1        0.0214
      8 C         141.7701  144.2661  164.1110 C.ar    1  UNL1        0.0764
      9 N         142.1662  142.8699  163.7320 N.ar    1  UNL1       -0.3196
     10 C         142.8574  140.7725  158.8795 C.2     1  UNL1        0.0127
     11 C         142.2073  139.4209  158.8577 C.2     1  UNL1        0.0616
     12 N         142.8471  138.6164  157.7652 N.pl3   1  UNL1       -0.2954
     13 C         142.5019  137.2052  157.3916 C.3     1  UNL1        0.1129
     14 C         143.8926  139.4708  157.1118 C.3     1  UNL1        0.1750
     15 C         144.8397  139.2075  155.9787 C.2     1  UNL1        0.2679
     16 O         144.8333  137.8750  155.2901 O.2     1  UNL1       -0.2708
     17 N         145.7932  140.2769  155.5343 N.am    1  UNL1       -0.1762
     18 C         145.7996  141.6095  156.2230 C.2     1  UNL1        0.0884
     19 C         144.8525  141.8727  157.3561 C.2     1  UNL1        0.0158
     20 C         143.8990  140.8033  157.8005 C.2     1  UNL1        0.0071
     21 N         141.4670  145.7180  159.6598 N.pl3   1  UNL1       -0.2187
     22 H         141.4631  146.5042  160.2524 H       1  UNL1        0.1734
     23 S         141.1107  145.8694  158.2107 S.O2    1  UNL1        0.0539
     24 O         139.6889  145.5068  158.5223 O.2     1  UNL1       -0.1545
     25 O         142.5324  146.2320  157.8990 O.2     1  UNL1       -0.1545
     26 C         139.4856  146.7186  156.3700 C.3     1  UNL1        0.0292
     27 C         140.7544  146.0208  156.7615 C.3     1  UNL1        0.1724
     28 C         142.4566  141.7469  164.6831 C.3     1  UNL1        0.1385
     29 C         143.8750  142.2189  164.8073 C.3     1  UNL1        0.0350
     30 C         141.0382  141.2749  164.5588 C.ar    1  UNL1        0.0828
     31 C         139.9230  142.0881  165.1462 C.ar    1  UNL1        0.0169
     32 C         138.5046  141.6161  165.0220 C.ar    1  UNL1        0.0029
     33 C         138.2014  140.3310  164.3104 C.ar    1  UNL1        0.0207
     34 C         139.3166  139.5177  163.7230 C.ar    1  UNL1        0.0985
     35 N         140.7349  139.9897  163.8472 N.ar    1  UNL1       -0.2460
     36 C         142.7470  140.6239  165.6341 C.ar    1  UNL1        0.0828
     37 C         143.5577  139.4466  165.1794 C.ar    1  UNL1        0.0169
     38 C         143.8482  138.3236  166.1304 C.ar    1  UNL1        0.0029
     39 C         143.3279  138.3779  167.5362 C.ar    1  UNL1        0.0207
     40 C         142.5172  139.5551  167.9910 C.ar    1  UNL1        0.0985
     41 N         142.2267  140.6782  167.0399 N.ar    1  UNL1       -0.2460
@<TRIPOS>BOND
     1    26    27    1
     2    27    23    1
     3    23    24    2
     4    23    25    2
     5    23    21    1
     6    21     1    1
     7     1     2   ar
     8     2     3   ar
     9     3    10    1
    10    10    11    2
    11    11    12    1
    12    12    13    1
    13    12    14    1
    14    14    15    1
    15    15    16    2
    16    15    17    1
    17    17    18    2
    18    18    19    1
    19    19    20    2
    20     3     4   ar
    21     4     5   ar
    22     5     6   ar
    23     6     7   ar
    24     7     8   ar
    25     8     9   ar
    26     9    28    1
    27    28    29    1
    28    28    30    1
    29    30    31   ar
    30    31    32   ar
    31    32    33   ar
    32    33    34   ar
    33    34    35   ar
    34    28    36    1
    35    36    37   ar
    36    37    38   ar
    37    38    39   ar
    38    39    40   ar
    39    40    41   ar
    40     6     1   ar
    41    35    30   ar
    42    41    36   ar
    43    20    10    1
    44     9     5   ar
    45    20    14    1
    46    21    22    1
@<TRIPOS>MOLECULE
*****
 41 46 0 0 0
SMALL
GASTEIGER

@<TRIPOS>ATOM
      1 C         141.9916  144.1427  160.1014 C.ar    1  UNL1        0.0658
      2 C         141.8228  142.9205  159.2482 C.ar    1  UNL1        0.0160
      3 C         141.9144  141.5565  159.8653 C.ar    1  UNL1        0.0037
      4 C         142.1748  141.4145  161.3357 C.ar    1  UNL1        0.0173
      5 C         142.3436  142.6365  162.1889 C.ar    1  UNL1        0.0616
      6 C         142.2519  144.0007  161.5718 C.ar    1  UNL1        0.0319
      7 C         142.4592  145.0153  162.6570 C.ar    1  UNL1        0.0214
      8 C         142.6790  144.2782  163.9448 C.ar    1  UNL1        0.0764
      9 N         142.6075  142.8081  163.6555 N.ar    1  UNL1       -0.3196
     10 C         141.7457  140.3343  159.0121 C.2     1  UNL1        0.0127
     11 C         142.7121  139.1919  158.9072 C.2     1  UNL1        0.0616
     12 N         142.1445  138.1916  157.9442 N.pl3   1  UNL1       -0.2954
     13 C         142.7821  136.8948  157.5422 C.3     1  UNL1        0.1129
     14 C         140.8274  138.7159  157.4539 C.3     1  UNL1        0.1750
     15 C         139.8206  138.1584  156.4918 C.2     1  UNL1        0.2679
     16 O         140.0671  136.8342  155.8318 O.2     1  UNL1       -0.2708
     17 N         138.5674  138.9254  156.1895 N.am    1  UNL1       -0.1762
     18 C         138.3209  140.2496  156.8495 C.2     1  UNL1        0.0884
     19 C         139.3276  140.8070  157.8117 C.2     1  UNL1        0.0158
     20 C         140.5809  140.0401  158.1139 C.2     1  UNL1        0.0071
     21 N         141.8999  145.5068  159.4842 N.pl3   1  UNL1       -0.2187
     22 H         142.4252  146.2517  159.8563 H       1  UNL1        0.1734
     23 S         141.0080  145.7359  158.3002 S.O2    1  UNL1        0.0539
     24 O         139.8023  145.6020  159.1825 O.2     1  UNL1       -0.1545
     25 O         142.2137  145.8697  157.4180 O.2     1  UNL1       -0.1545
     26 C         139.6573  144.8024  156.2868 C.3     1  UNL1        0.0292
     27 C         140.1161  145.9649  157.1161 C.3     1  UNL1        0.1724
     28 C         142.7712  141.7035  164.6570 C.3     1  UNL1        0.1385
     29 C         144.2590  141.8912  164.6208 C.3     1  UNL1        0.0350
     30 C         141.2835  141.5158  164.6932 C.ar    1  UNL1        0.0828
     31 C         140.3997  142.6223  165.1881 C.ar    1  UNL1        0.0169
     32 C         138.9120  142.4346  165.2243 C.ar    1  UNL1        0.0029
     33 C         138.3079  141.1405  164.7657 C.ar    1  UNL1        0.0207
     34 C         139.1915  140.0340  164.2709 C.ar    1  UNL1        0.0985
     35 N         140.6793  140.2217  164.2347 N.ar    1  UNL1       -0.2460
     36 C         142.9350  140.5989  165.6585 C.ar    1  UNL1        0.0828
     37 C         143.5827  139.3082  165.2525 C.ar    1  UNL1        0.0169
     38 C         143.7465  138.2036  166.2539 C.ar    1  UNL1        0.0029
     39 C         143.2625  138.3896  167.6615 C.ar    1  UNL1        0.0207
     40 C         142.6148  139.6801  168.0675 C.ar    1  UNL1        0.0985
     41 N         142.4510  140.7848  167.0660 N.ar    1  UNL1       -0.2460
@<TRIPOS>BOND
     1    26    27    1
     2    27    23    1
     3    23    24    2
     4    23    25    2
     5    23    21    1
     6    21     1    1
     7     1     2   ar
     8     2     3   ar
     9     3    10    1
    10    10    11    2
    11    11    12    1
    12    12    13    1
    13    12    14    1
    14    14    15    1
    15    15    16    2
    16    15    17    1
    17    17    18    2
    18    18    19    1
    19    19    20    2
    20     3     4   ar
    21     4     5   ar
    22     5     6   ar
    23     6     7   ar
    24     7     8   ar
    25     8     9   ar
    26     9    28    1
    27    28    29    1
    28    28    30    1
    29    30    31   ar
    30    31    32   ar
    31    32    33   ar
    32    33    34   ar
    33    34    35   ar
    34    28    36    1
    35    36    37   ar
    36    37    38   ar
    37    38    39   ar
    38    39    40   ar
    39    40    41   ar
    40     6     1   ar
    41    35    30   ar
    42    41    36   ar
    43    20    10    1
    44     9     5   ar
    45    20    14    1
    46    21    22    1
@<TRIPOS>MOLECULE
*****
 41 46 0 0 0
SMALL
GASTEIGER

@<TRIPOS>ATOM
      1 C         140.3090  144.8482  159.0001 C.ar    1  UNL1        0.0658
      2 C         140.5732  143.5499  158.2966 C.ar    1  UNL1        0.0160
      3 C         140.6366  142.2721  159.0794 C.ar    1  UNL1        0.0037
      4 C         140.4359  142.2923  160.5658 C.ar    1  UNL1        0.0173
      5 C         140.1717  143.5905  161.2693 C.ar    1  UNL1        0.0616
      6 C         140.1083  144.8684  160.4864 C.ar    1  UNL1        0.0319
      7 C         139.8335  145.9873  161.4469 C.ar    1  UNL1        0.0214
      8 C         139.7271  145.4009  162.8234 C.ar    1  UNL1        0.0764
      9 N         139.9361  143.9196  162.7137 N.ar    1  UNL1       -0.3196
     10 C         140.9007  140.9738  158.3760 C.2     1  UNL1        0.0127
     11 C         139.9075  139.8711  158.1581 C.2     1  UNL1        0.0616
     12 N         140.5974  138.7661  157.4143 N.pl3   1  UNL1       -0.2954
     13 C         139.9767  137.4690  156.9873 C.3     1  UNL1        0.1129
     14 C         142.0170  139.1860  157.1726 C.3     1  UNL1        0.1750
     15 C         143.1633  138.5021  156.4881 C.2     1  UNL1        0.2679
     16 O         142.9758  137.1377  155.8937 O.2     1  UNL1       -0.2708
     17 N         144.4970  139.1828  156.3979 N.am    1  UNL1       -0.1762
     18 C         144.6844  140.5472  156.9922 C.2     1  UNL1        0.0884
     19 C         143.5382  141.2310  157.6767 C.2     1  UNL1        0.0158
     20 C         142.2045  140.5504  157.7669 C.2     1  UNL1        0.0071
     21 N         140.2456  146.1261  158.2171 N.pl3   1  UNL1       -0.2187
     22 H         139.9595  146.9592  158.6569 H       1  UNL1        0.1734
     23 S         140.6183  146.1348  156.7642 S.O2    1  UNL1        0.0539
     24 O         139.1656  146.1093  156.3914 O.2     1  UNL1       -0.1545
     25 O         142.0710  146.1602  157.1370 O.2     1  UNL1       -0.1545
     26 C         140.3084  147.0886  154.3675 C.3     1  UNL1        0.0292
     27 C         140.9910  146.1434  155.3113 C.3     1  UNL1        0.1724
     28 C         139.9135  142.9395  163.8489 C.3     1  UNL1        0.1385
     29 C         138.4139  142.9326  163.8131 C.3     1  UNL1        0.0350
     30 C         141.4130  142.9463  163.8848 C.ar    1  UNL1        0.0828
     31 C         142.1487  144.2013  164.2508 C.ar    1  UNL1        0.0169
     32 C         143.6483  144.2082  164.2867 C.ar    1  UNL1        0.0029
     33 C         144.4121  142.9603  163.9565 C.ar    1  UNL1        0.0207
     34 C         143.6765  141.7053  163.5905 C.ar    1  UNL1        0.0985
     35 N         142.1770  141.6984  163.5547 N.ar    1  UNL1       -0.2460
     36 C         139.8908  141.9593  164.9842 C.ar    1  UNL1        0.0828
     37 C         140.2790  142.4010  166.3642 C.ar    1  UNL1        0.0169
     38 C         140.2564  141.4210  167.4995 C.ar    1  UNL1        0.0029
     39 C         139.8456  139.9992  167.2549 C.ar    1  UNL1        0.0207
     40 C         139.4574  139.5575  165.8749 C.ar    1  UNL1        0.0985
     41 N         139.4800  140.5377  164.7396 N.ar    1  UNL1       -0.2460
@<TRIPOS>BOND
     1    26    27    1
     2    27    23    1
     3    23    24    2
     4    23    25    2
     5    23    21    1
     6    21     1    1
     7     1     2   ar
     8     2     3   ar
     9     3    10    1
    10    10    11    2
    11    11    12    1
    12    12    13    1
    13    12    14    1
    14    14    15    1
    15    15    16    2
    16    15    17    1
    17    17    18    2
    18    18    19    1
    19    19    20    2
    20     3     4   ar
    21     4     5   ar
    22     5     6   ar
    23     6     7   ar
    24     7     8   ar
    25     8     9   ar
    26     9    28    1
    27    28    29    1
    28    28    30    1
    29    30    31   ar
    30    31    32   ar
    31    32    33   ar
    32    33    34   ar
    33    34    35   ar
    34    28    36    1
    35    36    37   ar
    36    37    38   ar
    37    38    39   ar
    38    39    40   ar
    39    40    41   ar
    40     6     1   ar
    41    35    30   ar
    42    41    36   ar
    43    20    10    1
    44     9     5   ar
    45    20    14    1
    46    21    22    1
@<TRIPOS>MOLECULE
*****
 41 46 0 0 0
SMALL
GASTEIGER

@<TRIPOS>ATOM
      1 C         140.2079  144.7213  158.9803 C.ar    1  UNL1        0.0658
      2 C         140.2408  143.4383  158.2036 C.ar    1  UNL1        0.0160
      3 C         140.0793  142.1272  158.9139 C.ar    1  UNL1        0.0037
      4 C         139.8850  142.0988  160.4010 C.ar    1  UNL1        0.0173
      5 C         139.8521  143.3816  161.1777 C.ar    1  UNL1        0.0616
      6 C         140.0136  144.6928  160.4674 C.ar    1  UNL1        0.0319
      7 C         139.9387  145.7868  161.4908 C.ar    1  UNL1        0.0214
      8 C         139.7310  145.1517  162.8338 C.ar    1  UNL1        0.0764
      9 N         139.6774  143.6652  162.6403 N.ar    1  UNL1       -0.3196
     10 C         140.1122  140.8443  158.1373 C.2     1  UNL1        0.0127
     11 C         139.1696  140.4552  157.0373 C.2     1  UNL1        0.0616
     12 N         139.5684  139.0957  156.5444 N.pl3   1  UNL1       -0.2954
     13 C         138.8961  138.3229  155.4486 C.3     1  UNL1        0.1129
     14 C         140.7574  138.6446  157.3399 C.3     1  UNL1        0.1750
     15 C         141.5776  137.3895  157.2950 C.2     1  UNL1        0.2679
     16 O         141.2414  136.3088  156.3106 O.2     1  UNL1       -0.2708
     17 N         142.7338  137.2150  158.2345 N.am    1  UNL1       -0.1762
     18 C         143.0700  138.2957  159.2189 C.2     1  UNL1        0.0884
     19 C         142.2498  139.5509  159.2639 C.2     1  UNL1        0.0158
     20 C         141.0936  139.7253  158.3243 C.2     1  UNL1        0.0071
     21 N         140.3694  146.0325  158.2698 N.pl3   1  UNL1       -0.2187
     22 H         140.2178  146.8764  158.7536 H       1  UNL1        0.1734
     23 S         140.7617  146.0578  156.8223 S.O2    1  UNL1        0.0539
     24 O         142.2070  145.9634  157.2123 O.2     1  UNL1       -0.1545
     25 O         139.3164  146.1522  156.4323 O.2     1  UNL1       -0.1545
     26 C         142.2098  145.1464  154.8673 C.3     1  UNL1        0.0292
     27 C         141.1539  146.0832  155.3747 C.3     1  UNL1        0.1724
     28 C         139.4834  142.6420  163.7198 C.3     1  UNL1        0.1385
     29 C         137.9962  142.7931  163.5957 C.3     1  UNL1        0.0350
     30 C         140.9705  142.4909  163.8439 C.ar    1  UNL1        0.0828
     31 C         141.6466  141.2621  163.3117 C.ar    1  UNL1        0.0169
     32 C         143.1338  141.1109  163.4359 C.ar    1  UNL1        0.0029
     33 C         143.9449  142.1885  164.0921 C.ar    1  UNL1        0.0207
     34 C         143.2690  143.4173  164.6243 C.ar    1  UNL1        0.0985
     35 N         141.7819  143.5684  164.5002 N.ar    1  UNL1       -0.2460
     36 C         139.2893  141.6188  164.7993 C.ar    1  UNL1        0.0828
     37 C         138.4480  140.4044  164.5392 C.ar    1  UNL1        0.0169
     38 C         138.2539  139.3812  165.6186 C.ar    1  UNL1        0.0029
     39 C         138.9010  139.5723  166.9583 C.ar    1  UNL1        0.0207
     40 C         139.7422  140.7866  167.2184 C.ar    1  UNL1        0.0985
     41 N         139.9364  141.8099  166.1389 N.ar    1  UNL1       -0.2460
@<TRIPOS>BOND
     1    26    27    1
     2    27    23    1
     3    23    24    2
     4    23    25    2
     5    23    21    1
     6    21     1    1
     7     1     2   ar
     8     2     3   ar
     9     3    10    1
    10    10    11    2
    11    11    12    1
    12    12    13    1
    13    12    14    1
    14    14    15    1
    15    15    16    2
    16    15    17    1
    17    17    18    2
    18    18    19    1
    19    19    20    2
    20     3     4   ar
    21     4     5   ar
    22     5     6   ar
    23     6     7   ar
    24     7     8   ar
    25     8     9   ar
    26     9    28    1
    27    28    29    1
    28    28    30    1
    29    30    31   ar
    30    31    32   ar
    31    32    33   ar
    32    33    34   ar
    33    34    35   ar
    34    28    36    1
    35    36    37   ar
    36    37    38   ar
    37    38    39   ar
    38    39    40   ar
    39    40    41   ar
    40     6     1   ar
    41    35    30   ar
    42    41    36   ar
    43    20    10    1
    44     9     5   ar
    45    20    14    1
    46    21    22    1
@<TRIPOS>MOLECULE
*****
 41 46 0 0 0
SMALL
GASTEIGER

@<TRIPOS>ATOM
      1 C         140.7009  144.7815  158.8342 C.ar    1  UNL1        0.0658
      2 C         141.2852  143.5802  158.1518 C.ar    1  UNL1        0.0160
      3 C         141.8100  142.4358  158.9670 C.ar    1  UNL1        0.0037
      4 C         141.7507  142.4925  160.4648 C.ar    1  UNL1        0.0173
      5 C         141.1664  143.6937  161.1472 C.ar    1  UNL1        0.0616
      6 C         140.6415  144.8382  160.3320 C.ar    1  UNL1        0.0319
      7 C         140.1259  145.8826  161.2771 C.ar    1  UNL1        0.0214
      8 C         140.3321  145.3836  162.6766 C.ar    1  UNL1        0.0764
      9 N         140.9752  144.0308  162.5963 N.ar    1  UNL1       -0.3196
     10 C         142.3944  141.2346  158.2846 C.2     1  UNL1        0.0127
     11 C         141.9072  139.8220  158.4160 C.2     1  UNL1        0.0616
     12 N         142.7802  138.9495  157.5635 N.pl3   1  UNL1       -0.2954
     13 C         142.6495  137.4643  157.3983 C.3     1  UNL1        0.1129
     14 C         143.8069  139.8228  156.9054 C.3     1  UNL1        0.1750
     15 C         144.9281  139.5145  155.9578 C.2     1  UNL1        0.2679
     16 O         145.1666  138.1023  155.5122 O.2     1  UNL1       -0.2708
     17 N         145.8108  140.6186  155.4558 N.am    1  UNL1       -0.1762
     18 C         145.5724  142.0309  155.9015 C.2     1  UNL1        0.0884
     19 C         144.4512  142.3392  156.8490 C.2     1  UNL1        0.0158
     20 C         143.5684  141.2351  157.3510 C.2     1  UNL1        0.0071
     21 N         140.1760  145.9259  158.0188 N.pl3   1  UNL1       -0.2187
     22 H         139.5967  146.6033  158.4369 H       1  UNL1        0.1734
     23 S         140.5337  146.0383  156.5665 S.O2    1  UNL1        0.0539
     24 O         139.1167  145.7183  156.1926 O.2     1  UNL1       -0.1545
     25 O         141.9507  146.3583  156.9404 O.2     1  UNL1       -0.1545
     26 C         140.2462  147.2030  154.2620 C.3     1  UNL1        0.0292
     27 C         140.8915  146.1506  155.1142 C.3     1  UNL1        0.1724
     28 C         141.3595  143.1668  163.7607 C.3     1  UNL1        0.1385
     29 C         142.6345  143.9418  163.9149 C.3     1  UNL1        0.0350
     30 C         140.0845  142.3918  163.6065 C.ar    1  UNL1        0.0828
     31 C         138.7671  143.0513  163.8888 C.ar    1  UNL1        0.0169
     32 C         137.4921  142.2764  163.7347 C.ar    1  UNL1        0.0029
     33 C         137.5345  140.8420  163.2982 C.ar    1  UNL1        0.0207
     34 C         138.8518  140.1824  163.0158 C.ar    1  UNL1        0.0985
     35 N         140.1268  140.9574  163.1700 N.ar    1  UNL1       -0.2460
     36 C         141.7439  142.3028  164.9251 C.ar    1  UNL1        0.0828
     37 C         141.1170  142.5322  166.2684 C.ar    1  UNL1        0.0169
     38 C         141.5012  141.6683  167.4328 C.ar    1  UNL1        0.0029
     39 C         142.5125  140.5749  167.2539 C.ar    1  UNL1        0.0207
     40 C         143.1394  140.3456  165.9107 C.ar    1  UNL1        0.0985
     41 N         142.7551  141.2096  164.7462 N.ar    1  UNL1       -0.2460
@<TRIPOS>BOND
     1    26    27    1
     2    27    23    1
     3    23    24    2
     4    23    25    2
     5    23    21    1
     6    21     1    1
     7     1     2   ar
     8     2     3   ar
     9     3    10    1
    10    10    11    2
    11    11    12    1
    12    12    13    1
    13    12    14    1
    14    14    15    1
    15    15    16    2
    16    15    17    1
    17    17    18    2
    18    18    19    1
    19    19    20    2
    20     3     4   ar
    21     4     5   ar
    22     5     6   ar
    23     6     7   ar
    24     7     8   ar
    25     8     9   ar
    26     9    28    1
    27    28    29    1
    28    28    30    1
    29    30    31   ar
    30    31    32   ar
    31    32    33   ar
    32    33    34   ar
    33    34    35   ar
    34    28    36    1
    35    36    37   ar
    36    37    38   ar
    37    38    39   ar
    38    39    40   ar
    39    40    41   ar
    40     6     1   ar
    41    35    30   ar
    42    41    36   ar
    43    20    10    1
    44     9     5   ar
    45    20    14    1
    46    21    22    1
@<TRIPOS>MOLECULE
*****
 41 46 0 0 0
SMALL
GASTEIGER

@<TRIPOS>ATOM
      1 C         142.4161  138.5165  158.0218 C.ar    1  UNL1        0.0658
      2 C         141.7135  139.6464  157.3291 C.ar    1  UNL1        0.0160
      3 C         141.0831  140.7438  158.1342 C.ar    1  UNL1        0.0037
      4 C         141.1552  140.7114  159.6321 C.ar    1  UNL1        0.0173
      5 C         141.8578  139.5815  160.3249 C.ar    1  UNL1        0.0616
      6 C         142.4882  138.4841  159.5197 C.ar    1  UNL1        0.0319
      7 C         143.1084  137.5068  160.4738 C.ar    1  UNL1        0.0214
      8 C         142.8613  138.0002  161.8685 C.ar    1  UNL1        0.0764
      9 N         142.0884  139.2825  161.7765 N.ar    1  UNL1       -0.3196
     10 C         140.3805  141.8737  157.4415 C.2     1  UNL1        0.0127
     11 C         140.9645  143.2217  157.1387 C.2     1  UNL1        0.0616
     12 N         139.9155  144.0350  156.4400 N.pl3   1  UNL1       -0.2954
     13 C         140.0714  145.4460  155.9554 C.3     1  UNL1        0.1129
     14 C         138.6831  143.1895  156.3110 C.3     1  UNL1        0.1750
     15 C         137.3364  143.4635  155.7099 C.2     1  UNL1        0.2679
     16 O         137.0490  144.7992  155.0910 O.2     1  UNL1       -0.2708
     17 N         136.2770  142.4016  155.7278 N.am    1  UNL1       -0.1762
     18 C         136.5645  141.0658  156.3468 C.2     1  UNL1        0.0884
     19 C         137.9112  140.7919  156.9478 C.2     1  UNL1        0.0158
     20 C         138.9706  141.8538  156.9300 C.2     1  UNL1        0.0071
     21 N         143.0465  137.4191  157.2166 N.pl3   1  UNL1       -0.2187
     22 H         143.7845  136.8906  157.5977 H       1  UNL1        0.1734
     23 S         142.5524  137.1270  155.8308 S.O2    1  UNL1        0.0539
     24 O         143.7395  137.8421  155.2567 O.2     1  UNL1       -0.1545
     25 O         141.3654  136.4119  156.4048 O.2     1  UNL1       -0.1545
     26 C         142.2773  135.4795  153.8408 C.3     1  UNL1        0.0292
     27 C         142.0583  136.8349  154.4450 C.3     1  UNL1        0.1724
     28 C         141.6270  140.1188  162.9332 C.3     1  UNL1        0.1385
     29 C         140.2440  139.5564  162.7882 C.3     1  UNL1        0.0350
     30 C         143.0100  140.6812  163.0781 C.ar    1  UNL1        0.0828
     31 C         143.9285  140.1497  164.1383 C.ar    1  UNL1        0.0169
     32 C         145.3115  140.7121  164.2833 C.ar    1  UNL1        0.0029
     33 C         145.7761  141.8059  163.3682 C.ar    1  UNL1        0.0207
     34 C         144.8577  142.3375  162.3079 C.ar    1  UNL1        0.0985
     35 N         143.4747  141.7751  162.1630 N.ar    1  UNL1       -0.2460
     36 C         141.1657  140.9551  164.0898 C.ar    1  UNL1        0.0828
     37 C         141.0427  142.4424  163.9380 C.ar    1  UNL1        0.0169
     38 C         140.5814  143.2787  165.0945 C.ar    1  UNL1        0.0029
     39 C         140.2431  142.6278  166.4029 C.ar    1  UNL1        0.0207
     40 C         140.3661  141.1406  166.5547 C.ar    1  UNL1        0.0985
     41 N         140.8274  140.3042  165.3981 N.ar    1  UNL1       -0.2460
@<TRIPOS>BOND
     1    26    27    1
     2    27    23    1
     3    23    24    2
     4    23    25    2
     5    23    21    1
     6    21     1    1
     7     1     2   ar
     8     2     3   ar
     9     3    10    1
    10    10    11    2
    11    11    12    1
    12    12    13    1
    13    12    14    1
    14    14    15    1
    15    15    16    2
    16    15    17    1
    17    17    18    2
    18    18    19    1
    19    19    20    2
    20     3     4   ar
    21     4     5   ar
    22     5     6   ar
    23     6     7   ar
    24     7     8   ar
    25     8     9   ar
    26     9    28    1
    27    28    29    1
    28    28    30    1
    29    30    31   ar
    30    31    32   ar
    31    32    33   ar
    32    33    34   ar
    33    34    35   ar
    34    28    36    1
    35    36    37   ar
    36    37    38   ar
    37    38    39   ar
    38    39    40   ar
    39    40    41   ar
    40     6     1   ar
    41    35    30   ar
    42    41    36   ar
    43    20    10    1
    44     9     5   ar
    45    20    14    1
    46    21    22    1
@<TRIPOS>MOLECULE
*****
 41 46 0 0 0
SMALL
GASTEIGER

@<TRIPOS>ATOM
      1 C         143.1485  139.6047  159.0246 C.ar    1  UNL1        0.0658
      2 C         142.4847  140.9334  158.8143 C.ar    1  UNL1        0.0160
      3 C         142.1071  141.7783  159.9947 C.ar    1  UNL1        0.0037
      4 C         142.3932  141.2947  161.3855 C.ar    1  UNL1        0.0173
      5 C         143.0570  139.9661  161.5958 C.ar    1  UNL1        0.0616
      6 C         143.4346  139.1211  160.4154 C.ar    1  UNL1        0.0319
      7 C         144.0729  137.8649  160.9298 C.ar    1  UNL1        0.0214
      8 C         144.0898  137.9336  162.4281 C.ar    1  UNL1        0.0764
      9 N         143.4619  139.2322  162.8398 N.ar    1  UNL1       -0.3196
     10 C         141.4433  143.1070  159.7844 C.2     1  UNL1        0.0127
     11 C         141.3067  143.8270  158.4756 C.2     1  UNL1        0.0616
     12 N         140.5785  145.1138  158.7284 N.pl3   1  UNL1       -0.2954
     13 C         140.2257  146.1445  157.6972 C.3     1  UNL1        0.1129
     14 C         140.2652  145.1891  160.1934 C.3     1  UNL1        0.1750
     15 C         139.5622  146.2268  161.0174 C.2     1  UNL1        0.2679
     16 O         139.0278  147.4671  160.3647 O.2     1  UNL1       -0.2708
     17 N         139.3937  146.0242  162.4941 N.am    1  UNL1       -0.1762
     18 C         139.9282  144.7839  163.1468 C.2     1  UNL1        0.0884
     19 C         140.6312  143.7462  162.3227 C.2     1  UNL1        0.0158
     20 C         140.7996  143.9488  160.8460 C.2     1  UNL1        0.0071
     21 N         143.5261  138.7597  157.8441 N.pl3   1  UNL1       -0.2187
     22 H         144.4636  138.7212  157.5461 H       1  UNL1        0.1734
     23 S         142.4753  137.9735  157.1178 S.O2    1  UNL1        0.0539
     24 O         142.2221  139.1450  156.2159 O.2     1  UNL1       -0.1545
     25 O         142.7286  136.8020  158.0197 O.2     1  UNL1       -0.1545
     26 C         139.9725  137.4389  156.6709 C.3     1  UNL1        0.0292
     27 C         141.4246  137.1872  156.3915 C.3     1  UNL1        0.1724
     28 C         143.2722  139.7125  164.2481 C.3     1  UNL1        0.1385
     29 C         144.6923  140.1950  164.2747 C.3     1  UNL1        0.0350
     30 C         141.8522  139.2300  164.2214 C.ar    1  UNL1        0.0828
     31 C         141.5603  137.7588  164.1934 C.ar    1  UNL1        0.0169
     32 C         140.1403  137.2763  164.1667 C.ar    1  UNL1        0.0029
     33 C         139.0122  138.2648  164.1680 C.ar    1  UNL1        0.0207
     34 C         139.3039  139.7359  164.1960 C.ar    1  UNL1        0.0985
     35 N         140.7240  140.2184  164.2227 N.ar    1  UNL1       -0.2460
     36 C         143.0826  140.1927  165.6564 C.ar    1  UNL1        0.0828
     37 C         142.8603  139.2041  166.7625 C.ar    1  UNL1        0.0169
     38 C         142.6707  139.6843  168.1707 C.ar    1  UNL1        0.0029
     39 C         142.7033  141.1532  168.4731 C.ar    1  UNL1        0.0207
     40 C         142.9255  142.1418  167.3671 C.ar    1  UNL1        0.0985
     41 N         143.1152  141.6615  165.9587 N.ar    1  UNL1       -0.2460
@<TRIPOS>BOND
     1    26    27    1
     2    27    23    1
     3    23    24    2
     4    23    25    2
     5    23    21    1
     6    21     1    1
     7     1     2   ar
     8     2     3   ar
     9     3    10    1
    10    10    11    2
    11    11    12    1
    12    12    13    1
    13    12    14    1
    14    14    15    1
    15    15    16    2
    16    15    17    1
    17    17    18    2
    18    18    19    1
    19    19    20    2
    20     3     4   ar
    21     4     5   ar
    22     5     6   ar
    23     6     7   ar
    24     7     8   ar
    25     8     9   ar
    26     9    28    1
    27    28    29    1
    28    28    30    1
    29    30    31   ar
    30    31    32   ar
    31    32    33   ar
    32    33    34   ar
    33    34    35   ar
    34    28    36    1
    35    36    37   ar
    36    37    38   ar
    37    38    39   ar
    38    39    40   ar
    39    40    41   ar
    40     6     1   ar
    41    35    30   ar
    42    41    36   ar
    43    20    10    1
    44     9     5   ar
    45    20    14    1
    46    21    22    1
@<TRIPOS>MOLECULE
*****
 41 46 0 0 0
SMALL
GASTEIGER

@<TRIPOS>ATOM
      1 C         142.7468  138.9553  158.1657 C.ar    1  UNL1        0.0658
      2 C         141.9634  140.0270  157.4672 C.ar    1  UNL1        0.0160
      3 C         141.2663  141.0879  158.2662 C.ar    1  UNL1        0.0037
      4 C         141.3526  141.0772  159.7637 C.ar    1  UNL1        0.0173
      5 C         142.1359  140.0056  160.4621 C.ar    1  UNL1        0.0616
      6 C         142.8330  138.9446  159.6632 C.ar    1  UNL1        0.0319
      7 C         143.5259  138.0224  160.6220 C.ar    1  UNL1        0.0214
      8 C         143.2570  138.5134  162.0136 C.ar    1  UNL1        0.0764
      9 N         142.3980  139.7391  161.9148 N.ar    1  UNL1       -0.3196
     10 C         140.4829  142.1596  157.5677 C.2     1  UNL1        0.0127
     11 C         140.9483  143.5606  157.3019 C.2     1  UNL1        0.0616
     12 N         139.8496  144.2853  156.5824 N.pl3   1  UNL1       -0.2954
     13 C         139.8884  145.7125  156.1224 C.3     1  UNL1        0.1129
     14 C         138.7052  143.3322  156.4035 C.3     1  UNL1        0.1750
     15 C         137.3572  143.4908  155.7648 C.2     1  UNL1        0.2679
     16 O         136.9658  144.8046  155.1558 O.2     1  UNL1       -0.2708
     17 N         136.4007  142.3357  155.7351 N.am    1  UNL1       -0.1762
     18 C         136.7921  141.0220  156.3441 C.2     1  UNL1        0.0884
     19 C         138.1401  140.8633  156.9828 C.2     1  UNL1        0.0158
     20 C         139.0966  142.0185  157.0125 C.2     1  UNL1        0.0071
     21 N         143.4439  137.8943  157.3666 N.pl3   1  UNL1       -0.2187
     22 H         144.2965  137.5188  157.6849 H       1  UNL1        0.1734
     23 S         142.8420  137.4055  156.0826 S.O2    1  UNL1        0.0539
     24 O         141.7932  136.6633  156.8566 O.2     1  UNL1       -0.1545
     25 O         143.8907  138.1478  155.3086 O.2     1  UNL1       -0.1545
     26 C         142.5873  135.5533  154.2787 C.3     1  UNL1        0.0292
     27 C         142.2401  136.9168  154.7985 C.3     1  UNL1        0.1724
     28 C         141.8902  140.5550  163.0665 C.3     1  UNL1        0.1385
     29 C         142.9341  141.5959  162.7894 C.3     1  UNL1        0.0350
     30 C         140.8462  139.5141  163.3436 C.ar    1  UNL1        0.0828
     31 C         140.9634  138.6385  164.5560 C.ar    1  UNL1        0.0169
     32 C         139.9194  137.5976  164.8331 C.ar    1  UNL1        0.0029
     33 C         138.7584  137.4323  163.8979 C.ar    1  UNL1        0.0207
     34 C         138.6412  138.3078  162.6856 C.ar    1  UNL1        0.0985
     35 N         139.6851  139.3487  162.4085 N.ar    1  UNL1       -0.2460
     36 C         141.3823  141.3709  164.2182 C.ar    1  UNL1        0.0828
     37 C         140.0709  142.0905  164.1070 C.ar    1  UNL1        0.0169
     38 C         139.5630  142.9064  165.2586 C.ar    1  UNL1        0.0029
     39 C         140.3666  143.0027  166.5216 C.ar    1  UNL1        0.0207
     40 C         141.6780  142.2832  166.6328 C.ar    1  UNL1        0.0985
     41 N         142.1859  141.4672  165.4811 N.ar    1  UNL1       -0.2460
@<TRIPOS>BOND
     1    26    27    1
     2    27    23    1
     3    23    24    2
     4    23    25    2
     5    23    21    1
     6    21     1    1
     7     1     2   ar
     8     2     3   ar
     9     3    10    1
    10    10    11    2
    11    11    12    1
    12    12    13    1
    13    12    14    1
    14    14    15    1
    15    15    16    2
    16    15    17    1
    17    17    18    2
    18    18    19    1
    19    19    20    2
    20     3     4   ar
    21     4     5   ar
    22     5     6   ar
    23     6     7   ar
    24     7     8   ar
    25     8     9   ar
    26     9    28    1
    27    28    29    1
    28    28    30    1
    29    30    31   ar
    30    31    32   ar
    31    32    33   ar
    32    33    34   ar
    33    34    35   ar
    34    28    36    1
    35    36    37   ar
    36    37    38   ar
    37    38    39   ar
    38    39    40   ar
    39    40    41   ar
    40     6     1   ar
    41    35    30   ar
    42    41    36   ar
    43    20    10    1
    44     9     5   ar
    45    20    14    1
    46    21    22    1
