@<TRIPOS>MOLECULE
*****
 41 44 0 0 0
SMALL
GASTEIGER

@<TRIPOS>ATOM
      1 C         141.5243  140.8007  163.0144 C.3     1  UNL1        0.0807
      2 C         142.0072  141.2016  164.3769 C.ar    1  UNL1        0.0375
      3 C         141.0203  141.5819  165.4405 C.ar    1  UNL1        0.0023
      4 C         141.5031  141.9827  166.8030 C.ar    1  UNL1        0.0183
      5 C         140.5162  142.3631  167.8666 C.ar    1  UNL1        0.0118
      6 C         140.9991  142.7639  169.2290 C.ar    1  UNL1        0.0685
      7 C         142.4689  142.7843  169.5278 C.ar    1  UNL1        0.0118
      8 C         143.4558  142.4040  168.4642 C.ar    1  UNL1        0.0199
      9 C         142.9729  142.0032  167.1018 C.ar    1  UNL1        0.0844
     10 N         143.9599  141.6228  166.0381 N.ar    1  UNL1       -0.2119
     11 C         143.4770  141.2220  164.6757 C.ar    1  UNL1        0.2211
     12 C         140.0121  143.1442  170.2927 C.1     1  UNL1        0.1004
     13 N         139.0252  143.5246  171.3563 N.1     1  UNL1       -0.1908
     14 O         144.4639  140.8417  163.6120 O.3     1  UNL1       -0.4563
     15 C         145.6186  141.7475  163.3018 C.3     1  UNL1        0.2542
     16 C         143.5133  140.8498  159.5805 C.ar    1  UNL1        0.1721
     17 C         143.6306  142.3261  159.3420 C.ar    1  UNL1        0.0400
     18 C         143.0458  143.2939  160.3276 C.ar    1  UNL1        0.0030
     19 C         142.3437  142.7854  161.5518 C.ar    1  UNL1       -0.0007
     20 C         142.2264  141.3092  161.7903 C.ar    1  UNL1        0.0213
     21 C         142.8111  140.3414  160.8048 C.ar    1  UNL1        0.1687
     22 C         143.2094  139.1958  157.6003 C.3     1  UNL1        0.2526
     23 O         144.0980  139.8820  158.5950 O.3     1  UNL1       -0.4684
     24 O         142.6938  138.8651  161.0433 O.3     1  UNL1       -0.4687
     25 C         143.8831  138.0858  161.5212 C.3     1  UNL1        0.2526
     26 C         140.3394  139.8915  162.8762 C.3     1  UNL1        0.1160
     27 O         141.1036  138.7926  163.5532 O.3     1  UNL1       -0.3820
     28 H         141.4405  139.1106  164.4055 H       1  UNL1        0.2107
     29 C         139.5751  140.9903  162.1991 C.ar    1  UNL1        0.0047
     30 C         139.0153  142.1229  163.0077 C.ar    1  UNL1        0.0127
     31 C         138.2510  143.2218  162.3307 C.ar    1  UNL1        0.0587
     32 C         137.6911  144.3544  163.1393 C.3     1  UNL1        0.0521
     33 N         138.0466  143.1881  160.8451 N.ar    1  UNL1       -0.2540
     34 C         138.6065  142.0555  160.0365 C.ar    1  UNL1        0.0587
     35 C         138.2232  142.3346  158.6133 C.3     1  UNL1        0.0521
     36 C         139.3708  140.9567  160.7135 C.ar    1  UNL1        0.0127
     37 C         139.1544  138.9822  162.7379 C.3     1  UNL1        0.0491
     38 C         138.9256  137.8906  163.7411 C.3     1  UNL1        0.0750
     39 N         138.4052  138.2249  165.1076 N.3     1  UNL1       -0.2702
     40 C         138.1647  139.6554  165.4893 C.3     1  UNL1        0.0897
     41 C         138.1253  137.1286  166.0925 C.3     1  UNL1        0.0897
@<TRIPOS>BOND
     1    22    23    1
     2    23    16    1
     3    16    17   ar
     4    17    18   ar
     5    18    19   ar
     6    19    20   ar
     7    20     1    1
     8     1     2    1
     9     2     3   ar
    10     3     4   ar
    11     4     5   ar
    12     5     6   ar
    13     6    12    1
    14    12    13    3
    15     6     7   ar
    16     7     8   ar
    17     8     9   ar
    18     9    10   ar
    19    10    11   ar
    20    11    14    1
    21    14    15    1
    22     1    26    1
    23    26    27    1
    24    26    37    1
    25    37    38    1
    26    38    39    1
    27    39    40    1
    28    39    41    1
    29    26    29    1
    30    29    30   ar
    31    30    31   ar
    32    31    32    1
    33    31    33   ar
    34    33    34   ar
    35    34    35    1
    36    34    36   ar
    37    20    21   ar
    38    21    24    1
    39    24    25    1
    40    21    16   ar
    41    11     2   ar
    42    36    29   ar
    43     9     4   ar
    44    27    28    1
@<TRIPOS>MOLECULE
*****
 41 44 0 0 0
SMALL
GASTEIGER

@<TRIPOS>ATOM
      1 C         141.7904  140.9410  162.5731 C.3     1  UNL1        0.0807
      2 C         141.5992  140.7225  164.0448 C.ar    1  UNL1        0.0375
      3 C         141.2754  141.8821  164.9394 C.ar    1  UNL1        0.0023
      4 C         141.0842  141.6636  166.4111 C.ar    1  UNL1        0.0183
      5 C         140.7603  142.8232  167.3057 C.ar    1  UNL1        0.0118
      6 C         140.5692  142.6046  168.7773 C.ar    1  UNL1        0.0685
      7 C         140.7019  141.2264  169.3543 C.ar    1  UNL1        0.0118
      8 C         141.0258  140.0668  168.4597 C.ar    1  UNL1        0.0199
      9 C         141.2169  140.2854  166.9881 C.ar    1  UNL1        0.0844
     10 N         141.5408  139.1257  166.0934 N.ar    1  UNL1       -0.2119
     11 C         141.7320  139.3443  164.6218 C.ar    1  UNL1        0.2211
     12 C         140.2453  143.7643  169.6719 C.1     1  UNL1        0.1004
     13 N         139.9214  144.9239  170.5665 N.1     1  UNL1       -0.1908
     14 O         142.0558  138.1846  163.7272 O.3     1  UNL1       -0.4563
     15 C         141.0474  137.0940  163.5182 C.3     1  UNL1        0.2542
     16 C         140.9418  138.5582  159.5151 C.ar    1  UNL1        0.1721
     17 C         139.4462  138.4944  159.6119 C.ar    1  UNL1        0.0400
     18 C         138.7321  139.2463  160.6958 C.ar    1  UNL1        0.0030
     19 C         139.5135  140.0618  161.6829 C.ar    1  UNL1       -0.0007
     20 C         141.0090  140.1255  161.5861 C.ar    1  UNL1        0.0213
     21 C         141.7231  139.3737  160.5022 C.ar    1  UNL1        0.1687
     22 C         142.0576  138.5109  157.1694 C.3     1  UNL1        0.2526
     23 O         141.6559  137.8064  158.4312 O.3     1  UNL1       -0.4684
     24 O         143.2187  139.4375  160.4054 O.3     1  UNL1       -0.4687
     25 C         144.0521  138.2956  160.9071 C.3     1  UNL1        0.2526
     26 C         142.7630  141.9751  162.0886 C.3     1  UNL1        0.1160
     27 O         143.8947  141.1875  162.6793 O.3     1  UNL1       -0.3820
     28 H         143.8656  140.2780  162.3435 H       1  UNL1        0.2107
     29 C         141.6313  142.7627  161.4978 C.ar    1  UNL1        0.0047
     30 C         140.6081  143.3938  162.3949 C.ar    1  UNL1        0.0127
     31 C         139.4764  144.1814  161.8042 C.ar    1  UNL1        0.0587
     32 C         138.4532  144.8125  162.7013 C.3     1  UNL1        0.0521
     33 N         139.3679  144.3379  160.3163 N.ar    1  UNL1       -0.2540
     34 C         140.3911  143.7068  159.4193 C.ar    1  UNL1        0.0587
     35 C         139.9847  144.0568  158.0184 C.3     1  UNL1        0.0521
     36 C         141.5228  142.9192  160.0100 C.ar    1  UNL1        0.0127
     37 C         143.7356  143.0092  161.6041 C.3     1  UNL1        0.0491
     38 C         144.6196  143.7241  162.5826 C.3     1  UNL1        0.0750
     39 N         144.0701  144.1644  163.9070 N.3     1  UNL1       -0.2702
     40 C         143.0650  145.2761  163.9699 C.3     1  UNL1        0.0897
     41 C         144.5257  143.4930  165.1687 C.3     1  UNL1        0.0897
@<TRIPOS>BOND
     1    22    23    1
     2    23    16    1
     3    16    17   ar
     4    17    18   ar
     5    18    19   ar
     6    19    20   ar
     7    20     1    1
     8     1     2    1
     9     2     3   ar
    10     3     4   ar
    11     4     5   ar
    12     5     6   ar
    13     6    12    1
    14    12    13    3
    15     6     7   ar
    16     7     8   ar
    17     8     9   ar
    18     9    10   ar
    19    10    11   ar
    20    11    14    1
    21    14    15    1
    22     1    26    1
    23    26    27    1
    24    26    37    1
    25    37    38    1
    26    38    39    1
    27    39    40    1
    28    39    41    1
    29    26    29    1
    30    29    30   ar
    31    30    31   ar
    32    31    32    1
    33    31    33   ar
    34    33    34   ar
    35    34    35    1
    36    34    36   ar
    37    20    21   ar
    38    21    24    1
    39    24    25    1
    40    21    16   ar
    41    11     2   ar
    42    36    29   ar
    43     9     4   ar
    44    27    28    1
@<TRIPOS>MOLECULE
*****
 41 44 0 0 0
SMALL
GASTEIGER

@<TRIPOS>ATOM
      1 C         141.5162  141.7239  164.5360 C.3     1  UNL1        0.0807
      2 C         142.3427  141.9833  163.3113 C.ar    1  UNL1        0.0375
      3 C         142.1443  141.1474  162.0818 C.ar    1  UNL1        0.0023
      4 C         142.9707  141.4067  160.8571 C.ar    1  UNL1        0.0183
      5 C         142.7723  140.5708  159.6275 C.ar    1  UNL1        0.0118
      6 C         143.5988  140.8302  158.4030 C.ar    1  UNL1        0.0685
      7 C         144.6236  141.9255  158.4079 C.ar    1  UNL1        0.0118
      8 C         144.8220  142.7614  159.6375 C.ar    1  UNL1        0.0199
      9 C         143.9956  142.5020  160.8621 C.ar    1  UNL1        0.0844
     10 N         144.1940  143.3379  162.0917 N.ar    1  UNL1       -0.2119
     11 C         143.3675  143.0785  163.3163 C.ar    1  UNL1        0.2211
     12 C         143.4004  139.9943  157.1733 C.1     1  UNL1        0.1004
     13 N         143.2020  139.1584  155.9437 N.1     1  UNL1       -0.1908
     14 O         143.5659  143.9145  164.5459 O.3     1  UNL1       -0.4563
     15 C         144.6819  143.5970  165.4966 C.3     1  UNL1        0.2542
     16 C         142.6424  140.4429  168.1194 C.ar    1  UNL1        0.1721
     17 C         143.0972  139.0513  167.7929 C.ar    1  UNL1        0.0400
     18 C         143.0250  138.5506  166.3808 C.ar    1  UNL1        0.0030
     19 C         142.4980  139.4414  165.2951 C.ar    1  UNL1       -0.0007
     20 C         142.0432  140.8330  165.6216 C.ar    1  UNL1        0.0213
     21 C         142.1154  141.3338  167.0337 C.ar    1  UNL1        0.1687
     22 C         143.7229  141.9892  169.9058 C.3     1  UNL1        0.2526
     23 O         142.7146  140.9437  169.5315 O.3     1  UNL1       -0.4684
     24 O         141.6606  142.7254  167.3601 O.3     1  UNL1       -0.4687
     25 C         140.4597  142.9364  168.2340 C.3     1  UNL1        0.2526
     26 C         140.1627  142.3555  164.6750 C.3     1  UNL1        0.1160
     27 O         140.8016  143.7112  164.7357 O.3     1  UNL1       -0.3820
     28 H         141.3749  143.8334  163.9628 H       1  UNL1        0.2107
     29 C         139.5239  140.9997  164.6143 C.ar    1  UNL1        0.0047
     30 C         138.9233  140.3976  165.8499 C.ar    1  UNL1        0.0127
     31 C         138.2844  139.0418  165.7892 C.ar    1  UNL1        0.0587
     32 C         137.6838  138.4397  167.0248 C.3     1  UNL1        0.0521
     33 N         138.2461  138.2881  164.4929 N.ar    1  UNL1       -0.2540
     34 C         138.8467  138.8902  163.2573 C.ar    1  UNL1        0.0587
     35 C         138.6364  137.8853  162.1635 C.3     1  UNL1        0.0521
     36 C         139.4856  140.2460  163.3180 C.ar    1  UNL1        0.0127
     37 C         138.8093  142.9870  164.8140 C.3     1  UNL1        0.0491
     38 C         138.5042  144.2713  164.1014 C.3     1  UNL1        0.0750
     39 N         138.7980  144.4043  162.6365 N.3     1  UNL1       -0.2702
     40 C         139.5077  145.6212  162.1214 C.3     1  UNL1        0.0897
     41 C         138.3821  143.3204  161.6867 C.3     1  UNL1        0.0897
@<TRIPOS>BOND
     1    22    23    1
     2    23    16    1
     3    16    17   ar
     4    17    18   ar
     5    18    19   ar
     6    19    20   ar
     7    20     1    1
     8     1     2    1
     9     2     3   ar
    10     3     4   ar
    11     4     5   ar
    12     5     6   ar
    13     6    12    1
    14    12    13    3
    15     6     7   ar
    16     7     8   ar
    17     8     9   ar
    18     9    10   ar
    19    10    11   ar
    20    11    14    1
    21    14    15    1
    22     1    26    1
    23    26    27    1
    24    26    37    1
    25    37    38    1
    26    38    39    1
    27    39    40    1
    28    39    41    1
    29    26    29    1
    30    29    30   ar
    31    30    31   ar
    32    31    32    1
    33    31    33   ar
    34    33    34   ar
    35    34    35    1
    36    34    36   ar
    37    20    21   ar
    38    21    24    1
    39    24    25    1
    40    21    16   ar
    41    11     2   ar
    42    36    29   ar
    43     9     4   ar
    44    27    28    1
@<TRIPOS>MOLECULE
*****
 41 44 0 0 0
SMALL
GASTEIGER

@<TRIPOS>ATOM
      1 C         141.5476  142.3050  162.5766 C.3     1  UNL1        0.0807
      2 C         141.9841  142.2783  164.0115 C.ar    1  UNL1        0.0375
      3 C         141.1283  141.6054  165.0434 C.ar    1  UNL1        0.0023
      4 C         141.5648  141.5788  166.4783 C.ar    1  UNL1        0.0183
      5 C         140.7091  140.9059  167.5102 C.ar    1  UNL1        0.0118
      6 C         141.1456  140.8793  168.9450 C.ar    1  UNL1        0.0685
      7 C         142.4379  141.5256  169.3479 C.ar    1  UNL1        0.0118
      8 C         143.2937  142.1985  168.3160 C.ar    1  UNL1        0.0199
      9 C         142.8571  142.2251  166.8812 C.ar    1  UNL1        0.0844
     10 N         143.7129  142.8980  165.8492 N.ar    1  UNL1       -0.2119
     11 C         143.2764  142.9246  164.4144 C.ar    1  UNL1        0.2211
     12 C         140.2898  140.2064  169.9770 C.1     1  UNL1        0.1004
     13 N         139.4341  139.5335  171.0089 N.1     1  UNL1       -0.1908
     14 O         144.1321  143.5975  163.3824 O.3     1  UNL1       -0.4563
     15 C         144.0508  145.0834  163.1937 C.3     1  UNL1        0.2542
     16 C         143.8055  141.9119  159.3367 C.ar    1  UNL1        0.1721
     17 C         144.1416  140.4514  159.4009 C.ar    1  UNL1        0.0400
     18 C         143.6130  139.6088  160.5237 C.ar    1  UNL1        0.0030
     19 C         142.7483  140.2267  161.5822 C.ar    1  UNL1       -0.0007
     20 C         142.4122  141.6871  161.5181 C.ar    1  UNL1        0.0213
     21 C         142.9408  142.5297  160.3953 C.ar    1  UNL1        0.1687
     22 C         145.5311  142.2987  157.4335 C.3     1  UNL1        0.2526
     23 O         144.3340  142.7545  158.2139 O.3     1  UNL1       -0.4684
     24 O         142.6047  143.9902  160.3311 O.3     1  UNL1       -0.4687
     25 C         141.6461  144.4943  159.2932 C.3     1  UNL1        0.2526
     26 C         140.2464  142.9495  162.2004 C.3     1  UNL1        0.1160
     27 O         140.7351  144.2569  162.7497 O.3     1  UNL1       -0.3820
     28 H         141.5849  144.4824  162.3399 H       1  UNL1        0.2107
     29 C         139.7577  141.6420  161.6510 C.ar    1  UNL1        0.0047
     30 C         139.5703  141.4728  160.1725 C.ar    1  UNL1        0.0127
     31 C         139.0816  140.1654  159.6231 C.ar    1  UNL1        0.0587
     32 C         138.8943  139.9963  158.1444 C.3     1  UNL1        0.0521
     33 N         138.7802  139.0272  160.5523 N.ar    1  UNL1       -0.2540
     34 C         138.9675  139.1964  162.0309 C.ar    1  UNL1        0.0587
     35 C         138.5806  137.8856  162.6493 C.3     1  UNL1        0.0521
     36 C         139.4562  140.5038  162.5803 C.ar    1  UNL1        0.0127
     37 C         138.9452  143.5939  161.8241 C.3     1  UNL1        0.0491
     38 C         138.1957  144.4144  162.8317 C.3     1  UNL1        0.0750
     39 N         138.1354  143.9720  164.2637 N.3     1  UNL1       -0.2702
     40 C         137.5852  142.6198  164.6083 C.3     1  UNL1        0.0897
     41 C         138.6252  144.8819  165.3510 C.3     1  UNL1        0.0897
@<TRIPOS>BOND
     1    22    23    1
     2    23    16    1
     3    16    17   ar
     4    17    18   ar
     5    18    19   ar
     6    19    20   ar
     7    20     1    1
     8     1     2    1
     9     2     3   ar
    10     3     4   ar
    11     4     5   ar
    12     5     6   ar
    13     6    12    1
    14    12    13    3
    15     6     7   ar
    16     7     8   ar
    17     8     9   ar
    18     9    10   ar
    19    10    11   ar
    20    11    14    1
    21    14    15    1
    22     1    26    1
    23    26    27    1
    24    26    37    1
    25    37    38    1
    26    38    39    1
    27    39    40    1
    28    39    41    1
    29    26    29    1
    30    29    30   ar
    31    30    31   ar
    32    31    32    1
    33    31    33   ar
    34    33    34   ar
    35    34    35    1
    36    34    36   ar
    37    20    21   ar
    38    21    24    1
    39    24    25    1
    40    21    16   ar
    41    11     2   ar
    42    36    29   ar
    43     9     4   ar
    44    27    28    1
@<TRIPOS>MOLECULE
*****
 41 44 0 0 0
SMALL
GASTEIGER

@<TRIPOS>ATOM
      1 C         140.7057  140.8010  162.8293 C.3     1  UNL1        0.0807
      2 C         140.1473  140.4965  164.1878 C.ar    1  UNL1        0.0375
      3 C         140.7905  141.0797  165.4110 C.ar    1  UNL1        0.0023
      4 C         140.2321  140.7752  166.7696 C.ar    1  UNL1        0.0183
      5 C         140.8753  141.3583  167.9927 C.ar    1  UNL1        0.0118
      6 C         140.3169  141.0538  169.3512 C.ar    1  UNL1        0.0685
      7 C         139.1154  140.1662  169.4865 C.ar    1  UNL1        0.0118
      8 C         138.4722  139.5831  168.2633 C.ar    1  UNL1        0.0199
      9 C         139.0305  139.8876  166.9048 C.ar    1  UNL1        0.0844
     10 N         138.3873  139.3044  165.6816 N.ar    1  UNL1       -0.2119
     11 C         138.9457  139.6089  164.3231 C.ar    1  UNL1        0.2211
     12 C         140.9602  141.6370  170.5745 C.1     1  UNL1        0.1004
     13 N         141.6033  142.2200  171.7977 N.1     1  UNL1       -0.1908
     14 O         138.3025  139.0258  163.0998 O.3     1  UNL1       -0.4563
     15 C         138.5976  137.6106  162.6997 C.3     1  UNL1        0.2542
     16 C         142.0121  138.3093  160.0303 C.ar    1  UNL1        0.1721
     17 C         143.2315  137.7465  160.6984 C.ar    1  UNL1        0.0400
     18 C         143.6089  138.2020  162.0769 C.ar    1  UNL1        0.0030
     19 C         142.7670  139.2202  162.7872 C.ar    1  UNL1       -0.0007
     20 C         141.5476  139.7829  162.1190 C.ar    1  UNL1        0.0213
     21 C         141.1701  139.3275  160.7406 C.ar    1  UNL1        0.1687
     22 C         142.5659  138.0950  157.5011 C.3     1  UNL1        0.2526
     23 O         141.6346  137.8538  158.6519 O.3     1  UNL1       -0.4684
     24 O         139.9507  139.8902  160.0725 O.3     1  UNL1       -0.4687
     25 C         140.0956  140.7787  158.8726 C.3     1  UNL1        0.2526
     26 C         140.4221  142.1237  162.1811 C.3     1  UNL1        0.1160
     27 O         138.9614  141.7861  162.1314 O.3     1  UNL1       -0.3820
     28 H         138.6546  141.5463  163.0197 H       1  UNL1        0.2107
     29 C         141.8828  142.4612  162.2308 C.ar    1  UNL1        0.0047
     30 C         142.5228  142.8323  163.5356 C.ar    1  UNL1        0.0127
     31 C         143.9835  143.1698  163.5853 C.ar    1  UNL1        0.0587
     32 C         144.6235  143.5409  164.8903 C.3     1  UNL1        0.0521
     33 N         144.8042  143.1363  162.3302 N.ar    1  UNL1       -0.2540
     34 C         144.1641  142.7652  161.0254 C.ar    1  UNL1        0.0587
     35 C         145.2539  142.8317  159.9967 C.3     1  UNL1        0.0521
     36 C         142.7035  142.4277  160.9757 C.ar    1  UNL1        0.0127
     37 C         140.1385  143.4463  161.5329 C.3     1  UNL1        0.0491
     38 C         139.8260  144.6447  162.3793 C.3     1  UNL1        0.0750
     39 N         138.9376  144.5040  163.5796 N.3     1  UNL1       -0.2702
     40 C         137.4591  144.3246  163.4015 C.3     1  UNL1        0.0897
     41 C         139.5277  144.5426  164.9582 C.3     1  UNL1        0.0897
@<TRIPOS>BOND
     1    22    23    1
     2    23    16    1
     3    16    17   ar
     4    17    18   ar
     5    18    19   ar
     6    19    20   ar
     7    20     1    1
     8     1     2    1
     9     2     3   ar
    10     3     4   ar
    11     4     5   ar
    12     5     6   ar
    13     6    12    1
    14    12    13    3
    15     6     7   ar
    16     7     8   ar
    17     8     9   ar
    18     9    10   ar
    19    10    11   ar
    20    11    14    1
    21    14    15    1
    22     1    26    1
    23    26    27    1
    24    26    37    1
    25    37    38    1
    26    38    39    1
    27    39    40    1
    28    39    41    1
    29    26    29    1
    30    29    30   ar
    31    30    31   ar
    32    31    32    1
    33    31    33   ar
    34    33    34   ar
    35    34    35    1
    36    34    36   ar
    37    20    21   ar
    38    21    24    1
    39    24    25    1
    40    21    16   ar
    41    11     2   ar
    42    36    29   ar
    43     9     4   ar
    44    27    28    1
@<TRIPOS>MOLECULE
*****
 41 44 0 0 0
SMALL
GASTEIGER

@<TRIPOS>ATOM
      1 C         141.8238  141.1749  164.4448 C.3     1  UNL1        0.0807
      2 C         142.1848  140.2228  163.3433 C.ar    1  UNL1        0.0375
      3 C         141.4752  140.2986  162.0239 C.ar    1  UNL1        0.0023
      4 C         141.8363  139.3466  160.9224 C.ar    1  UNL1        0.0183
      5 C         141.1267  139.4223  159.6030 C.ar    1  UNL1        0.0118
      6 C         141.4878  138.4703  158.5016 C.ar    1  UNL1        0.0685
      7 C         142.5584  137.4425  158.7195 C.ar    1  UNL1        0.0118
      8 C         143.2679  137.3668  160.0388 C.ar    1  UNL1        0.0199
      9 C         142.9069  138.3188  161.1403 C.ar    1  UNL1        0.0844
     10 N         143.6165  138.2431  162.4597 N.ar    1  UNL1       -0.2119
     11 C         143.2554  139.1951  163.5612 C.ar    1  UNL1        0.2211
     12 C         140.7782  138.5460  157.1821 C.1     1  UNL1        0.1004
     13 N         140.0686  138.6217  155.8628 N.1     1  UNL1       -0.1908
     14 O         143.9650  139.1193  164.8806 O.3     1  UNL1       -0.4563
     15 C         143.5581  138.0900  165.8930 C.3     1  UNL1        0.2542
     16 C         140.6751  140.2752  168.1355 C.ar    1  UNL1        0.1721
     17 C         139.2830  139.7758  167.8853 C.ar    1  UNL1        0.0400
     18 C         138.7378  139.7428  166.4882 C.ar    1  UNL1        0.0030
     19 C         139.5847  140.2091  165.3415 C.ar    1  UNL1       -0.0007
     20 C         140.9769  140.7085  165.5916 C.ar    1  UNL1        0.0213
     21 C         141.5221  140.7415  166.9886 C.ar    1  UNL1        0.1687
     22 C         142.1501  139.2282  170.0004 C.3     1  UNL1        0.2526
     23 O         141.2203  140.3082  169.5325 O.3     1  UNL1       -0.4684
     24 O         142.9142  141.2409  167.2388 O.3     1  UNL1       -0.4687
     25 C         143.1322  142.4666  168.0757 C.3     1  UNL1        0.2526
     26 C         142.3097  142.5933  164.3995 C.3     1  UNL1        0.1160
     27 O         143.7214  142.1150  164.5677 O.3     1  UNL1       -0.3820
     28 H         143.9230  141.4558  163.8853 H       1  UNL1        0.2107
     29 C         140.8980  143.0715  164.2313 C.ar    1  UNL1        0.0047
     30 C         140.1290  142.7184  162.9928 C.ar    1  UNL1        0.0127
     31 C         138.7173  143.1967  162.8246 C.ar    1  UNL1        0.0587
     32 C         137.9483  142.8435  161.5861 C.3     1  UNL1        0.0521
     33 N         138.0745  144.0281  163.8949 N.ar    1  UNL1       -0.2540
     34 C         138.8435  144.3812  165.1334 C.ar    1  UNL1        0.0587
     35 C         137.9152  145.2055  165.9754 C.3     1  UNL1        0.0521
     36 C         140.2552  143.9030  165.3016 C.ar    1  UNL1        0.0127
     37 C         142.7956  144.0116  164.3542 C.3     1  UNL1        0.0491
     38 C         143.6903  144.4626  163.2378 C.3     1  UNL1        0.0750
     39 N         143.5617  143.8442  161.8773 N.3     1  UNL1       -0.2702
     40 C         142.4106  144.2158  160.9903 C.3     1  UNL1        0.0897
     41 C         144.5843  142.8542  161.4037 C.3     1  UNL1        0.0897
@<TRIPOS>BOND
     1    22    23    1
     2    23    16    1
     3    16    17   ar
     4    17    18   ar
     5    18    19   ar
     6    19    20   ar
     7    20     1    1
     8     1     2    1
     9     2     3   ar
    10     3     4   ar
    11     4     5   ar
    12     5     6   ar
    13     6    12    1
    14    12    13    3
    15     6     7   ar
    16     7     8   ar
    17     8     9   ar
    18     9    10   ar
    19    10    11   ar
    20    11    14    1
    21    14    15    1
    22     1    26    1
    23    26    27    1
    24    26    37    1
    25    37    38    1
    26    38    39    1
    27    39    40    1
    28    39    41    1
    29    26    29    1
    30    29    30   ar
    31    30    31   ar
    32    31    32    1
    33    31    33   ar
    34    33    34   ar
    35    34    35    1
    36    34    36   ar
    37    20    21   ar
    38    21    24    1
    39    24    25    1
    40    21    16   ar
    41    11     2   ar
    42    36    29   ar
    43     9     4   ar
    44    27    28    1
@<TRIPOS>MOLECULE
*****
 41 44 0 0 0
SMALL
GASTEIGER

@<TRIPOS>ATOM
      1 C         141.5215  142.3033  162.4975 C.3     1  UNL1        0.0807
      2 C         141.8362  142.0866  163.9481 C.ar    1  UNL1        0.0375
      3 C         140.7609  141.6296  164.8887 C.ar    1  UNL1        0.0023
      4 C         141.0756  141.4129  166.3392 C.ar    1  UNL1        0.0183
      5 C         140.0003  140.9558  167.2798 C.ar    1  UNL1        0.0118
      6 C         140.3150  140.7392  168.7303 C.ar    1  UNL1        0.0685
      7 C         141.7051  140.9795  169.2402 C.ar    1  UNL1        0.0118
      8 C         142.7804  141.4365  168.2996 C.ar    1  UNL1        0.0199
      9 C         142.4656  141.6532  166.8491 C.ar    1  UNL1        0.0844
     10 N         143.5410  142.1102  165.9084 N.ar    1  UNL1       -0.2119
     11 C         143.2262  142.3269  164.4579 C.ar    1  UNL1        0.2211
     12 C         139.2396  140.2821  169.6710 C.1     1  UNL1        0.1004
     13 N         138.1644  139.8251  170.6117 N.1     1  UNL1       -0.1908
     14 O         144.3016  142.7839  163.5172 O.3     1  UNL1       -0.4563
     15 C         145.5049  141.9210  163.2776 C.3     1  UNL1        0.2542
     16 C         143.8400  141.8550  159.3080 C.ar    1  UNL1        0.1721
     17 C         144.0685  140.3727  159.3296 C.ar    1  UNL1        0.0400
     18 C         143.4479  139.5338  160.4073 C.ar    1  UNL1        0.0030
     19 C         142.5989  140.1774  161.4633 C.ar    1  UNL1       -0.0007
     20 C         142.3704  141.6597  161.4416 C.ar    1  UNL1        0.0213
     21 C         142.9910  142.4985  160.3640 C.ar    1  UNL1        0.1687
     22 C         144.1444  142.4186  156.7902 C.3     1  UNL1        0.2526
     23 O         144.4606  142.6938  158.2303 O.3     1  UNL1       -0.4684
     24 O         142.7626  143.9809  160.3423 O.3     1  UNL1       -0.4687
     25 C         141.9316  144.5959  159.2553 C.3     1  UNL1        0.2526
     26 C         140.3577  143.1636  162.1029 C.3     1  UNL1        0.1160
     27 O         141.0067  144.3441  162.7626 O.3     1  UNL1       -0.3820
     28 H         141.9034  144.4586  162.4108 H       1  UNL1        0.2107
     29 C         139.7087  141.9831  161.4432 C.ar    1  UNL1        0.0047
     30 C         139.3070  140.7929  162.2629 C.ar    1  UNL1        0.0127
     31 C         138.6580  139.6124  161.6032 C.ar    1  UNL1        0.0587
     32 C         138.2562  138.4221  162.4230 C.3     1  UNL1        0.0521
     33 N         138.4107  139.6221  160.1238 N.ar    1  UNL1       -0.2540
     34 C         138.8125  140.8123  159.3041 C.ar    1  UNL1        0.0587
     35 C         138.4258  140.4905  157.8909 C.3     1  UNL1        0.0521
     36 C         139.4615  141.9928  159.9638 C.ar    1  UNL1        0.0127
     37 C         139.1940  144.0238  161.7084 C.3     1  UNL1        0.0491
     38 C         138.4290  144.7772  162.7560 C.3     1  UNL1        0.0750
     39 N         138.2349  144.1795  164.1180 N.3     1  UNL1       -0.2702
     40 C         137.4609  142.9041  164.2739 C.3     1  UNL1        0.0897
     41 C         138.8149  144.8571  165.3240 C.3     1  UNL1        0.0897
@<TRIPOS>BOND
     1    22    23    1
     2    23    16    1
     3    16    17   ar
     4    17    18   ar
     5    18    19   ar
     6    19    20   ar
     7    20     1    1
     8     1     2    1
     9     2     3   ar
    10     3     4   ar
    11     4     5   ar
    12     5     6   ar
    13     6    12    1
    14    12    13    3
    15     6     7   ar
    16     7     8   ar
    17     8     9   ar
    18     9    10   ar
    19    10    11   ar
    20    11    14    1
    21    14    15    1
    22     1    26    1
    23    26    27    1
    24    26    37    1
    25    37    38    1
    26    38    39    1
    27    39    40    1
    28    39    41    1
    29    26    29    1
    30    29    30   ar
    31    30    31   ar
    32    31    32    1
    33    31    33   ar
    34    33    34   ar
    35    34    35    1
    36    34    36   ar
    37    20    21   ar
    38    21    24    1
    39    24    25    1
    40    21    16   ar
    41    11     2   ar
    42    36    29   ar
    43     9     4   ar
    44    27    28    1
@<TRIPOS>MOLECULE
*****
 41 44 0 0 0
SMALL
GASTEIGER

@<TRIPOS>ATOM
      1 C         141.5847  142.4506  162.5099 C.3     1  UNL1        0.0807
      2 C         141.8855  142.1634  163.9511 C.ar    1  UNL1        0.0375
      3 C         140.7873  141.7232  164.8732 C.ar    1  UNL1        0.0023
      4 C         141.0881  141.4359  166.3144 C.ar    1  UNL1        0.0183
      5 C         139.9900  140.9957  167.2365 C.ar    1  UNL1        0.0118
      6 C         140.2908  140.7085  168.6776 C.ar    1  UNL1        0.0685
      7 C         141.6898  140.8614  169.1967 C.ar    1  UNL1        0.0118
      8 C         142.7879  141.3016  168.2747 C.ar    1  UNL1        0.0199
      9 C         142.4871  141.5888  166.8335 C.ar    1  UNL1        0.0844
     10 N         143.5853  142.0290  165.9114 N.ar    1  UNL1       -0.2119
     11 C         143.2845  142.3163  164.4702 C.ar    1  UNL1        0.2211
     12 C         139.1926  140.2683  169.5998 C.1     1  UNL1        0.1004
     13 N         138.0945  139.8281  170.5219 N.1     1  UNL1       -0.1908
     14 O         144.3827  142.7565  163.5481 O.3     1  UNL1       -0.4563
     15 C         145.5926  141.8910  163.3559 C.3     1  UNL1        0.2542
     16 C         143.6526  139.9012  160.2797 C.ar    1  UNL1        0.1721
     17 C         144.2750  140.8352  159.2846 C.ar    1  UNL1        0.0400
     18 C         144.0005  142.3078  159.3646 C.ar    1  UNL1        0.0030
     19 C         143.1038  142.8462  160.4397 C.ar    1  UNL1       -0.0007
     20 C         142.4814  141.9122  161.4348 C.ar    1  UNL1        0.0213
     21 C         142.7558  140.4397  161.3548 C.ar    1  UNL1        0.1687
     22 C         142.9106  137.5084  159.5914 C.3     1  UNL1        0.2526
     23 O         143.9270  138.4287  160.1997 O.3     1  UNL1       -0.4684
     24 O         142.1334  139.5057  162.3499 O.3     1  UNL1       -0.4687
     25 C         142.9940  138.7978  163.3542 C.3     1  UNL1        0.2526
     26 C         140.3871  143.2764  162.1439 C.3     1  UNL1        0.1160
     27 O         140.9836  144.4558  162.8532 O.3     1  UNL1       -0.3820
     28 H         141.8758  144.6218  162.5107 H       1  UNL1        0.2107
     29 C         139.7907  142.0969  161.4345 C.ar    1  UNL1        0.0047
     30 C         139.7608  142.0599  159.9353 C.ar    1  UNL1        0.0127
     31 C         139.1643  140.8804  159.2260 C.ar    1  UNL1        0.0587
     32 C         139.1344  140.8434  157.7267 C.3     1  UNL1        0.0521
     33 N         138.5978  139.7380  160.0159 N.ar    1  UNL1       -0.2540
     34 C         138.6277  139.7751  161.5151 C.ar    1  UNL1        0.0587
     35 C         137.9905  138.4966  161.9730 C.3     1  UNL1        0.0521
     36 C         139.2241  140.9546  162.2244 C.ar    1  UNL1        0.0127
     37 C         139.1895  144.1021  161.7778 C.3     1  UNL1        0.0491
     38 C         138.4490  144.8610  162.8389 C.3     1  UNL1        0.0750
     39 N         138.2268  144.2417  164.1869 N.3     1  UNL1       -0.2702
     40 C         138.7958  144.8910  165.4136 C.3     1  UNL1        0.0897
     41 C         137.4356  142.9731  164.3083 C.3     1  UNL1        0.0897
@<TRIPOS>BOND
     1    22    23    1
     2    23    16    1
     3    16    17   ar
     4    17    18   ar
     5    18    19   ar
     6    19    20   ar
     7    20     1    1
     8     1     2    1
     9     2     3   ar
    10     3     4   ar
    11     4     5   ar
    12     5     6   ar
    13     6    12    1
    14    12    13    3
    15     6     7   ar
    16     7     8   ar
    17     8     9   ar
    18     9    10   ar
    19    10    11   ar
    20    11    14    1
    21    14    15    1
    22     1    26    1
    23    26    27    1
    24    26    37    1
    25    37    38    1
    26    38    39    1
    27    39    40    1
    28    39    41    1
    29    26    29    1
    30    29    30   ar
    31    30    31   ar
    32    31    32    1
    33    31    33   ar
    34    33    34   ar
    35    34    35    1
    36    34    36   ar
    37    20    21   ar
    38    21    24    1
    39    24    25    1
    40    21    16   ar
    41    11     2   ar
    42    36    29   ar
    43     9     4   ar
    44    27    28    1
@<TRIPOS>MOLECULE
*****
 41 44 0 0 0
SMALL
GASTEIGER

@<TRIPOS>ATOM
      1 C         140.5938  140.8366  162.9912 C.3     1  UNL1        0.0807
      2 C         140.0667  140.5151  164.3582 C.ar    1  UNL1        0.0375
      3 C         140.7106  141.1182  165.5713 C.ar    1  UNL1        0.0023
      4 C         140.1835  140.7966  166.9384 C.ar    1  UNL1        0.0183
      5 C         140.8274  141.3998  168.1515 C.ar    1  UNL1        0.0118
      6 C         140.3003  141.0782  169.5185 C.ar    1  UNL1        0.0685
      7 C         139.1293  140.1535  169.6724 C.ar    1  UNL1        0.0118
      8 C         138.4855  139.5503  168.4593 C.ar    1  UNL1        0.0199
      9 C         139.0126  139.8719  167.0923 C.ar    1  UNL1        0.0844
     10 N         138.3687  139.2687  165.8791 N.ar    1  UNL1       -0.2119
     11 C         138.8958  139.5903  164.5122 C.ar    1  UNL1        0.2211
     12 C         140.9442  141.6814  170.7316 C.1     1  UNL1        0.1004
     13 N         141.5880  142.2845  171.9448 N.1     1  UNL1       -0.1908
     14 O         138.2519  138.9872  163.2990 O.3     1  UNL1       -0.4563
     15 C         138.5986  137.5883  162.8831 C.3     1  UNL1        0.2542
     16 C         141.8706  138.4880  160.0580 C.ar    1  UNL1        0.1721
     17 C         143.0082  137.7823  160.7347 C.ar    1  UNL1        0.0400
     18 C         143.3410  138.0947  162.1636 C.ar    1  UNL1        0.0030
     19 C         142.5362  139.1128  162.9157 C.ar    1  UNL1       -0.0007
     20 C         141.3986  139.8185  162.2390 C.ar    1  UNL1        0.0213
     21 C         141.0658  139.5061  160.8102 C.ar    1  UNL1        0.1687
     22 C         142.6138  137.7118  157.6926 C.3     1  UNL1        0.2526
     23 O         141.5378  138.1756  158.6291 O.3     1  UNL1       -0.4684
     24 O         139.9282  140.2118  160.1335 O.3     1  UNL1       -0.4687
     25 C         138.6769  139.4594  159.7899 C.3     1  UNL1        0.2526
     26 C         140.3161  142.1763  162.3763 C.3     1  UNL1        0.1160
     27 O         138.8534  141.8484  162.3226 O.3     1  UNL1       -0.3820
     28 H         138.5476  141.5887  163.2057 H       1  UNL1        0.2107
     29 C         141.7788  142.5042  162.4300 C.ar    1  UNL1        0.0047
     30 C         142.4059  142.9256  163.7259 C.ar    1  UNL1        0.0127
     31 C         143.8686  143.2535  163.7796 C.ar    1  UNL1        0.0587
     32 C         144.4956  143.6749  165.0755 C.3     1  UNL1        0.0521
     33 N         144.7043  143.1601  162.5375 N.ar    1  UNL1       -0.2540
     34 C         144.0773  142.7387  161.2417 C.ar    1  UNL1        0.0587
     35 C         145.1801  142.7527  160.2250 C.3     1  UNL1        0.0521
     36 C         142.6145  142.4108  161.1880 C.ar    1  UNL1        0.0127
     37 C         140.0384  143.5160  161.7614 C.3     1  UNL1        0.0491
     38 C         139.1734  143.6159  160.5400 C.3     1  UNL1        0.0750
     39 N         139.7439  144.1467  159.2583 N.3     1  UNL1       -0.2702
     40 C         140.6732  145.3239  159.2817 C.3     1  UNL1        0.0897
     41 C         139.3852  143.5002  157.9531 C.3     1  UNL1        0.0897
@<TRIPOS>BOND
     1    22    23    1
     2    23    16    1
     3    16    17   ar
     4    17    18   ar
     5    18    19   ar
     6    19    20   ar
     7    20     1    1
     8     1     2    1
     9     2     3   ar
    10     3     4   ar
    11     4     5   ar
    12     5     6   ar
    13     6    12    1
    14    12    13    3
    15     6     7   ar
    16     7     8   ar
    17     8     9   ar
    18     9    10   ar
    19    10    11   ar
    20    11    14    1
    21    14    15    1
    22     1    26    1
    23    26    27    1
    24    26    37    1
    25    37    38    1
    26    38    39    1
    27    39    40    1
    28    39    41    1
    29    26    29    1
    30    29    30   ar
    31    30    31   ar
    32    31    32    1
    33    31    33   ar
    34    33    34   ar
    35    34    35    1
    36    34    36   ar
    37    20    21   ar
    38    21    24    1
    39    24    25    1
    40    21    16   ar
    41    11     2   ar
    42    36    29   ar
    43     9     4   ar
    44    27    28    1
