@<TRIPOS>MOLECULE
*****
 30 33 0 0 0
SMALL
GASTEIGER

@<TRIPOS>ATOM
      1 C         137.8114  138.3473  166.6783 C.3     1  UNL1        0.1164
      2 N         138.6899  139.2341  165.8465 N.am    1  UNL1       -0.2638
      3 C         139.6280  140.1972  166.5115 C.2     1  UNL1        0.3078
      4 O         139.6878  140.2734  168.0083 O.2     1  UNL1       -0.2523
      5 N         140.5065  141.0840  165.6796 N.am    1  UNL1       -0.2540
      6 C         140.5567  141.1197  164.1809 C.3     1  UNL1        0.1221
      7 C         141.5701  142.1486  163.7754 C.2     1  UNL1       -0.0024
      8 C         142.1463  142.7486  165.0236 C.2     1  UNL1       -0.0047
      9 C         141.4890  142.0907  166.2005 C.3     1  UNL1        0.1217
     10 C         141.9421  142.5133  162.3688 C.ar    1  UNL1        0.0271
     11 C         143.3700  142.4128  161.9206 C.ar    1  UNL1        0.0316
     12 C         143.7420  142.7776  160.5140 C.ar    1  UNL1        0.1403
     13 F         145.1700  142.6771  160.0657 F       1  UNL1       -0.2042
     14 C         142.6860  143.2428  159.5556 C.ar    1  UNL1        0.0319
     15 C         141.2581  143.3432  160.0038 C.ar    1  UNL1        0.0319
     16 C         140.8862  142.9785  161.4104 C.ar    1  UNL1        0.1400
     17 F         139.4582  143.0790  161.8587 F       1  UNL1       -0.2042
     18 C         138.6301  139.1578  164.3496 C.3     1  UNL1        0.0796
     19 C         137.8303  140.1658  163.5786 C.3     1  UNL1        0.0370
     20 C         137.7706  140.0894  162.0816 C.3     1  UNL1        0.0703
     21 N         138.5106  139.0052  161.3558 N.3     1  UNL1       -0.2974
     22 C         139.3104  137.9973  162.1268 C.3     1  UNL1        0.0703
     23 C         139.3701  138.0736  163.6238 C.3     1  UNL1        0.0370
     24 H         139.1571  139.4673  160.7163 H       1  UNL1        0.1232
     25 C         141.7655  142.3874  167.6446 C.ar    1  UNL1       -0.0001
     26 C         140.7454  143.1146  168.4696 C.ar    1  UNL1       -0.0023
     27 C         141.0220  143.4113  169.9137 C.ar    1  UNL1       -0.0003
     28 C         142.3186  142.9808  170.5328 C.ar    1  UNL1       -0.0000
     29 C         143.3387  142.2535  169.7078 C.ar    1  UNL1       -0.0003
     30 C         143.0622  141.9568  168.2637 C.ar    1  UNL1       -0.0023
@<TRIPOS>BOND
     1     1     2    1
     2     2     3   am
     3     3     4    2
     4     3     5   am
     5     5     6    1
     6     6     7    1
     7     7    10    1
     8    10    11   ar
     9    11    12   ar
    10    12    13    1
    11    12    14   ar
    12    14    15   ar
    13    15    16   ar
    14    16    17    1
    15     7     8    2
    16     8     9    1
    17     9    25    1
    18    25    26   ar
    19    26    27   ar
    20    27    28   ar
    21    28    29   ar
    22    29    30   ar
    23     2    18    1
    24    18    19    1
    25    19    20    1
    26    20    21    1
    27    21    22    1
    28    22    23    1
    29     9     5    1
    30    30    25   ar
    31    23    18    1
    32    16    10   ar
    33    21    24    1
@<TRIPOS>MOLECULE
*****
 30 33 0 0 0
SMALL
GASTEIGER

@<TRIPOS>ATOM
      1 C         137.8304  138.3405  166.6833 C.3     1  UNL1        0.1164
      2 N         138.6938  139.2450  165.8548 N.am    1  UNL1       -0.2638
      3 C         139.6236  140.2136  166.5234 C.2     1  UNL1        0.3078
      4 O         139.6901  140.2777  168.0206 O.2     1  UNL1       -0.2523
      5 N         140.4870  141.1181  165.6949 N.am    1  UNL1       -0.2540
      6 C         140.5291  141.1674  164.1963 C.3     1  UNL1        0.1221
      7 C         141.5280  142.2119  163.7947 C.2     1  UNL1       -0.0024
      8 C         142.1032  142.8082  165.0452 C.2     1  UNL1       -0.0047
      9 C         141.4599  142.1322  166.2196 C.3     1  UNL1        0.1217
     10 C         141.8884  142.5932  162.3894 C.ar    1  UNL1        0.0271
     11 C         141.4199  143.9010  161.8236 C.ar    1  UNL1        0.0316
     12 C         141.7803  144.2822  160.4184 C.ar    1  UNL1        0.1403
     13 F         141.3118  145.5901  159.8524 F       1  UNL1       -0.2042
     14 C         142.6092  143.3557  159.5790 C.ar    1  UNL1        0.0319
     15 C         143.0777  142.0480  160.1449 C.ar    1  UNL1        0.0319
     16 C         142.7173  141.6667  161.5501 C.ar    1  UNL1        0.1400
     17 F         143.1858  140.3589  162.1160 F       1  UNL1       -0.2042
     18 C         138.6273  139.1809  164.3576 C.3     1  UNL1        0.0796
     19 C         137.7972  140.1747  163.6005 C.3     1  UNL1        0.0370
     20 C         137.7307  140.1106  162.1033 C.3     1  UNL1        0.0703
     21 N         138.4944  139.0526  161.3633 N.3     1  UNL1       -0.2974
     22 C         139.3245  138.0588  162.1204 C.3     1  UNL1        0.0703
     23 C         139.3909  138.1229  163.6176 C.3     1  UNL1        0.0370
     24 H         139.1250  139.5371  160.7245 H       1  UNL1        0.1232
     25 C         141.7402  142.4198  167.6648 C.ar    1  UNL1       -0.0001
     26 C         143.0423  141.9936  168.2755 C.ar    1  UNL1       -0.0023
     27 C         143.3226  142.2812  169.7207 C.ar    1  UNL1       -0.0003
     28 C         142.3008  142.9949  170.5552 C.ar    1  UNL1       -0.0000
     29 C         140.9987  143.4211  169.9446 C.ar    1  UNL1       -0.0003
     30 C         140.7184  143.1335  168.4993 C.ar    1  UNL1       -0.0023
@<TRIPOS>BOND
     1     1     2    1
     2     2     3   am
     3     3     4    2
     4     3     5   am
     5     5     6    1
     6     6     7    1
     7     7    10    1
     8    10    11   ar
     9    11    12   ar
    10    12    13    1
    11    12    14   ar
    12    14    15   ar
    13    15    16   ar
    14    16    17    1
    15     7     8    2
    16     8     9    1
    17     9    25    1
    18    25    26   ar
    19    26    27   ar
    20    27    28   ar
    21    28    29   ar
    22    29    30   ar
    23     2    18    1
    24    18    19    1
    25    19    20    1
    26    20    21    1
    27    21    22    1
    28    22    23    1
    29     9     5    1
    30    30    25   ar
    31    23    18    1
    32    16    10   ar
    33    21    24    1
@<TRIPOS>MOLECULE
*****
 30 33 0 0 0
SMALL
GASTEIGER

@<TRIPOS>ATOM
      1 C         138.4105  144.9775  165.7671 C.3     1  UNL1        0.1164
      2 N         139.2344  143.9289  165.0802 N.am    1  UNL1       -0.2638
      3 C         140.1632  143.0629  165.8784 C.2     1  UNL1        0.3078
      4 O         140.2682  143.2454  167.3636 O.2     1  UNL1       -0.2523
      5 N         140.9871  142.0144  165.1915 N.am    1  UNL1       -0.2540
      6 C         140.9885  141.7173  163.7212 C.3     1  UNL1        0.1221
      7 C         141.9564  140.5982  163.4753 C.2     1  UNL1       -0.0024
      8 C         142.5533  140.2035  164.7937 C.2     1  UNL1       -0.0047
      9 C         141.9542  141.0787  165.8544 C.3     1  UNL1        0.1217
     10 C         142.2721  139.9818  162.1447 C.ar    1  UNL1        0.0271
     11 C         141.1677  139.4307  161.2925 C.ar    1  UNL1        0.0316
     12 C         141.4834  138.8144  159.9619 C.ar    1  UNL1        0.1403
     13 F         140.3790  138.2631  159.1096 F       1  UNL1       -0.2042
     14 C         142.9036  138.7493  159.4835 C.ar    1  UNL1        0.0319
     15 C         144.0081  139.3005  160.3358 C.ar    1  UNL1        0.0319
     16 C         143.6923  139.9167  161.6663 C.ar    1  UNL1        0.1400
     17 F         144.7968  140.4680  162.5186 F       1  UNL1       -0.2042
     18 C         139.1294  143.7465  163.5950 C.3     1  UNL1        0.0796
     19 C         140.0274  144.5235  162.6786 C.3     1  UNL1        0.0370
     20 C         139.9224  144.3410  161.1934 C.3     1  UNL1        0.0703
     21 N         138.9195  143.3814  160.6247 N.3     1  UNL1       -0.2974
     22 C         138.0215  142.6044  161.5411 C.3     1  UNL1        0.0703
     23 C         138.1265  142.7869  163.0264 C.3     1  UNL1        0.0370
     24 H         139.4430  142.6987  160.0768 H       1  UNL1        0.1232
     25 C         142.2673  141.0274  167.3204 C.ar    1  UNL1       -0.0001
     26 C         141.7091  139.9230  168.1683 C.ar    1  UNL1       -0.0023
     27 C         142.0222  139.8717  169.6343 C.ar    1  UNL1       -0.0003
     28 C         142.8934  140.9247  170.2525 C.ar    1  UNL1       -0.0000
     29 C         143.4516  142.0290  169.4046 C.ar    1  UNL1       -0.0003
     30 C         143.1386  142.0804  167.9385 C.ar    1  UNL1       -0.0023
@<TRIPOS>BOND
     1     1     2    1
     2     2     3   am
     3     3     4    2
     4     3     5   am
     5     5     6    1
     6     6     7    1
     7     7    10    1
     8    10    11   ar
     9    11    12   ar
    10    12    13    1
    11    12    14   ar
    12    14    15   ar
    13    15    16   ar
    14    16    17    1
    15     7     8    2
    16     8     9    1
    17     9    25    1
    18    25    26   ar
    19    26    27   ar
    20    27    28   ar
    21    28    29   ar
    22    29    30   ar
    23     2    18    1
    24    18    19    1
    25    19    20    1
    26    20    21    1
    27    21    22    1
    28    22    23    1
    29     9     5    1
    30    30    25   ar
    31    23    18    1
    32    16    10   ar
    33    21    24    1
@<TRIPOS>MOLECULE
*****
 30 33 0 0 0
SMALL
GASTEIGER

@<TRIPOS>ATOM
      1 C         144.5649  138.3917  165.9410 C.3     1  UNL1        0.1164
      2 N         143.7630  139.5423  165.4088 N.am    1  UNL1       -0.2638
      3 C         142.7426  140.2121  166.2806 C.2     1  UNL1        0.3078
      4 O         142.5240  139.7313  167.6846 O.2     1  UNL1       -0.2523
      5 N         141.9407  141.3627  165.7485 N.am    1  UNL1       -0.2540
      6 C         142.0481  141.9507  164.3727 C.3     1  UNL1        0.1221
      7 C         141.0644  143.0786  164.2726 C.2     1  UNL1       -0.0024
      8 C         140.3491  143.1878  165.5866 C.2     1  UNL1       -0.0047
      9 C         140.8906  142.1273  166.4987 C.3     1  UNL1        0.1217
     10 C         140.8361  143.9454  163.0698 C.ar    1  UNL1        0.0271
     11 C         141.6101  143.6976  161.8090 C.ar    1  UNL1        0.0316
     12 C         141.3818  144.5643  160.6063 C.ar    1  UNL1        0.1403
     13 F         142.1557  144.3165  159.3454 F       1  UNL1       -0.2042
     14 C         140.3795  145.6788  160.6643 C.ar    1  UNL1        0.0319
     15 C         139.6056  145.9266  161.9251 C.ar    1  UNL1        0.0319
     16 C         139.8339  145.0599  163.1278 C.ar    1  UNL1        0.1400
     17 F         139.0600  145.3077  164.3887 F       1  UNL1       -0.2042
     18 C         143.9816  140.0231  164.0049 C.3     1  UNL1        0.0796
     19 C         143.2217  139.3996  162.8718 C.3     1  UNL1        0.0370
     20 C         143.4404  139.8804  161.4678 C.3     1  UNL1        0.0703
     21 N         144.4187  140.9847  161.1970 N.3     1  UNL1       -0.2974
     22 C         145.1785  141.6082  162.3301 C.3     1  UNL1        0.0703
     23 C         144.9599  141.1273  163.7341 C.3     1  UNL1        0.0370
     24 H         143.8976  141.7352  160.7437 H       1  UNL1        0.1232
     25 C         140.4580  141.8755  167.9127 C.ar    1  UNL1       -0.0001
     26 C         140.8253  142.8483  168.9939 C.ar    1  UNL1       -0.0023
     27 C         140.3928  142.5966  170.4079 C.ar    1  UNL1       -0.0003
     28 C         139.5929  141.3720  170.7408 C.ar    1  UNL1       -0.0000
     29 C         139.2257  140.3993  169.6597 C.ar    1  UNL1       -0.0003
     30 C         139.6582  140.6510  168.2456 C.ar    1  UNL1       -0.0023
@<TRIPOS>BOND
     1     1     2    1
     2     2     3   am
     3     3     4    2
     4     3     5   am
     5     5     6    1
     6     6     7    1
     7     7    10    1
     8    10    11   ar
     9    11    12   ar
    10    12    13    1
    11    12    14   ar
    12    14    15   ar
    13    15    16   ar
    14    16    17    1
    15     7     8    2
    16     8     9    1
    17     9    25    1
    18    25    26   ar
    19    26    27   ar
    20    27    28   ar
    21    28    29   ar
    22    29    30   ar
    23     2    18    1
    24    18    19    1
    25    19    20    1
    26    20    21    1
    27    21    22    1
    28    22    23    1
    29     9     5    1
    30    30    25   ar
    31    23    18    1
    32    16    10   ar
    33    21    24    1
@<TRIPOS>MOLECULE
*****
 30 33 0 0 0
SMALL
GASTEIGER

@<TRIPOS>ATOM
      1 C         144.3562  138.0686  166.2488 C.3     1  UNL1        0.1164
      2 N         143.5546  139.1692  165.6193 N.am    1  UNL1       -0.2638
      3 C         142.5552  139.9316  166.4378 C.2     1  UNL1        0.3078
      4 O         142.3575  139.5934  167.8858 O.2     1  UNL1       -0.2523
      5 N         141.7535  141.0321  165.8084 N.am    1  UNL1       -0.2540
      6 C         141.8415  141.4808  164.3797 C.3     1  UNL1        0.1221
      7 C         140.8655  142.6031  164.1855 C.2     1  UNL1       -0.0024
      8 C         140.1743  142.8481  165.4940 C.2     1  UNL1       -0.0047
      9 C         140.7231  141.8772  166.4970 C.3     1  UNL1        0.1217
     10 C         140.6232  143.3495  162.9070 C.ar    1  UNL1        0.0271
     11 C         140.2813  144.8095  162.9442 C.ar    1  UNL1        0.0316
     12 C         140.0390  145.5558  161.6659 C.ar    1  UNL1        0.1403
     13 F         139.6972  147.0159  161.7030 F       1  UNL1       -0.2042
     14 C         140.1386  144.8421  160.3503 C.ar    1  UNL1        0.0319
     15 C         140.4804  143.3821  160.3131 C.ar    1  UNL1        0.0319
     16 C         140.7227  142.6358  161.5915 C.ar    1  UNL1        0.1400
     17 F         141.0645  141.1757  161.5543 F       1  UNL1       -0.2042
     18 C         143.7523  139.5073  164.1714 C.3     1  UNL1        0.0796
     19 C         144.6283  140.6615  163.7835 C.3     1  UNL1        0.0370
     20 C         144.8260  140.9996  162.3355 C.3     1  UNL1        0.0703
     21 N         144.1477  140.1835  161.2754 N.3     1  UNL1       -0.2974
     22 C         143.2717  139.0293  161.6632 C.3     1  UNL1        0.0703
     23 C         143.0740  138.6912  163.1113 C.3     1  UNL1        0.0370
     24 H         144.8836  139.8069  160.6778 H       1  UNL1        0.1232
     25 C         140.3135  141.7701  167.9360 C.ar    1  UNL1       -0.0001
     26 C         139.5364  140.5769  168.4078 C.ar    1  UNL1       -0.0023
     27 C         139.1268  140.4698  169.8468 C.ar    1  UNL1       -0.0003
     28 C         139.4943  141.5559  170.8140 C.ar    1  UNL1       -0.0000
     29 C         140.2714  142.7490  170.3422 C.ar    1  UNL1       -0.0003
     30 C         140.6810  142.8561  168.9032 C.ar    1  UNL1       -0.0023
@<TRIPOS>BOND
     1     1     2    1
     2     2     3   am
     3     3     4    2
     4     3     5   am
     5     5     6    1
     6     6     7    1
     7     7    10    1
     8    10    11   ar
     9    11    12   ar
    10    12    13    1
    11    12    14   ar
    12    14    15   ar
    13    15    16   ar
    14    16    17    1
    15     7     8    2
    16     8     9    1
    17     9    25    1
    18    25    26   ar
    19    26    27   ar
    20    27    28   ar
    21    28    29   ar
    22    29    30   ar
    23     2    18    1
    24    18    19    1
    25    19    20    1
    26    20    21    1
    27    21    22    1
    28    22    23    1
    29     9     5    1
    30    30    25   ar
    31    23    18    1
    32    16    10   ar
    33    21    24    1
@<TRIPOS>MOLECULE
*****
 30 33 0 0 0
SMALL
GASTEIGER

@<TRIPOS>ATOM
      1 C         144.8955  143.9566  165.5911 C.3     1  UNL1        0.1164
      2 N         143.6913  143.2020  165.1109 N.am    1  UNL1       -0.2638
      3 C         142.8284  142.4642  166.0912 C.2     1  UNL1        0.3078
      4 O         143.1697  142.4811  167.5518 O.2     1  UNL1       -0.2523
      5 N         141.6243  141.7096  165.6110 N.am    1  UNL1       -0.2540
      6 C         141.1601  141.6028  164.1886 C.3     1  UNL1        0.1221
      7 C         139.9219  140.7565  164.1674 C.2     1  UNL1       -0.0024
      8 C         139.6207  140.3402  165.5767 C.2     1  UNL1       -0.0047
      9 C         140.6728  140.9293  166.4689 C.3     1  UNL1        0.1217
     10 C         139.1247  140.3906  162.9505 C.ar    1  UNL1        0.0271
     11 C         139.0066  141.3599  161.8119 C.ar    1  UNL1        0.0316
     12 C         138.2094  140.9941  160.5951 C.ar    1  UNL1        0.1403
     13 F         138.0912  141.9634  159.4565 F       1  UNL1       -0.2042
     14 C         137.5304  139.6588  160.5169 C.ar    1  UNL1        0.0319
     15 C         137.6485  138.6895  161.6555 C.ar    1  UNL1        0.0319
     16 C         138.4457  139.0554  162.8723 C.ar    1  UNL1        0.1400
     17 F         138.5638  138.0860  164.0109 F       1  UNL1       -0.2042
     18 C         143.3500  143.1851  163.6503 C.3     1  UNL1        0.0796
     19 C         142.4619  144.2484  163.0753 C.3     1  UNL1        0.0370
     20 C         142.1206  144.2315  161.6146 C.3     1  UNL1        0.0703
     21 N         142.6675  143.1513  160.7291 N.3     1  UNL1       -0.2974
     22 C         143.5557  142.0881  161.3041 C.3     1  UNL1        0.0703
     23 C         143.8970  142.1050  162.7648 C.3     1  UNL1        0.0370
     24 H         143.2015  143.6153  159.9942 H       1  UNL1        0.1232
     25 C         140.7585  140.7666  167.9576 C.ar    1  UNL1       -0.0001
     26 C         141.5702  139.6501  168.5446 C.ar    1  UNL1       -0.0023
     27 C         141.6559  139.4875  170.0332 C.ar    1  UNL1       -0.0003
     28 C         140.9298  140.4413  170.9349 C.ar    1  UNL1       -0.0000
     29 C         140.1180  141.5578  170.3479 C.ar    1  UNL1       -0.0003
     30 C         140.0324  141.7204  168.8592 C.ar    1  UNL1       -0.0023
@<TRIPOS>BOND
     1     1     2    1
     2     2     3   am
     3     3     4    2
     4     3     5   am
     5     5     6    1
     6     6     7    1
     7     7    10    1
     8    10    11   ar
     9    11    12   ar
    10    12    13    1
    11    12    14   ar
    12    14    15   ar
    13    15    16   ar
    14    16    17    1
    15     7     8    2
    16     8     9    1
    17     9    25    1
    18    25    26   ar
    19    26    27   ar
    20    27    28   ar
    21    28    29   ar
    22    29    30   ar
    23     2    18    1
    24    18    19    1
    25    19    20    1
    26    20    21    1
    27    21    22    1
    28    22    23    1
    29     9     5    1
    30    30    25   ar
    31    23    18    1
    32    16    10   ar
    33    21    24    1
@<TRIPOS>MOLECULE
*****
 30 33 0 0 0
SMALL
GASTEIGER

@<TRIPOS>ATOM
      1 C         140.9259  144.6669  159.3498 C.3     1  UNL1        0.1164
      2 N         140.6767  143.6453  160.4195 N.am    1  UNL1       -0.2638
      3 C         140.7258  142.1836  160.0866 C.2     1  UNL1        0.3078
      4 O         141.0241  141.7434  158.6840 O.2     1  UNL1       -0.2523
      5 N         140.4766  141.1620  161.1563 N.am    1  UNL1       -0.2540
      6 C         140.1678  141.4498  162.5957 C.3     1  UNL1        0.1221
      7 C         139.9928  140.1389  163.3034 C.2     1  UNL1       -0.0024
      8 C         140.1934  139.0408  162.3014 C.2     1  UNL1       -0.0047
      9 C         140.4924  139.6731  160.9744 C.3     1  UNL1        0.1217
     10 C         139.6733  139.9579  164.7578 C.ar    1  UNL1        0.0271
     11 C         138.5612  139.0409  165.1728 C.ar    1  UNL1        0.0316
     12 C         138.2417  138.8599  166.6272 C.ar    1  UNL1        0.1403
     13 F         137.1295  137.9429  167.0423 F       1  UNL1       -0.2042
     14 C         139.0344  139.5958  167.6664 C.ar    1  UNL1        0.0319
     15 C         140.1465  140.5127  167.2514 C.ar    1  UNL1        0.0319
     16 C         140.4660  140.6938  165.7971 C.ar    1  UNL1        0.1400
     17 F         141.5781  141.6108  165.3820 F       1  UNL1       -0.2042
     18 C         140.3784  144.0855  161.8221 C.3     1  UNL1        0.0796
     19 C         138.9565  144.2560  162.2683 C.3     1  UNL1        0.0370
     20 C         138.6582  144.6962  163.6710 C.3     1  UNL1        0.0703
     21 N         139.7818  144.9658  164.6274 N.3     1  UNL1       -0.2974
     22 C         141.2038  144.7953  164.1812 C.3     1  UNL1        0.0703
     23 C         141.5020  144.3551  162.7785 C.3     1  UNL1        0.0370
     24 H         139.6464  144.3430  165.4238 H       1  UNL1        0.1232
     25 C         140.7602  138.9444  159.6909 C.ar    1  UNL1       -0.0001
     26 C         139.6301  138.6349  158.7544 C.ar    1  UNL1       -0.0023
     27 C         139.8978  137.9062  157.4709 C.ar    1  UNL1       -0.0003
     28 C         141.2957  137.4871  157.1240 C.ar    1  UNL1       -0.0000
     29 C         142.4258  137.7967  158.0605 C.ar    1  UNL1       -0.0003
     30 C         142.1580  138.5253  159.3440 C.ar    1  UNL1       -0.0023
@<TRIPOS>BOND
     1     1     2    1
     2     2     3   am
     3     3     4    2
     4     3     5   am
     5     5     6    1
     6     6     7    1
     7     7    10    1
     8    10    11   ar
     9    11    12   ar
    10    12    13    1
    11    12    14   ar
    12    14    15   ar
    13    15    16   ar
    14    16    17    1
    15     7     8    2
    16     8     9    1
    17     9    25    1
    18    25    26   ar
    19    26    27   ar
    20    27    28   ar
    21    28    29   ar
    22    29    30   ar
    23     2    18    1
    24    18    19    1
    25    19    20    1
    26    20    21    1
    27    21    22    1
    28    22    23    1
    29     9     5    1
    30    30    25   ar
    31    23    18    1
    32    16    10   ar
    33    21    24    1
@<TRIPOS>MOLECULE
*****
 30 33 0 0 0
SMALL
GASTEIGER

@<TRIPOS>ATOM
      1 C         141.3460  144.6587  159.1677 C.3     1  UNL1        0.1164
      2 N         141.0261  143.6578  160.2381 N.am    1  UNL1       -0.2638
      3 C         141.0184  142.1926  159.9169 C.2     1  UNL1        0.3078
      4 O         141.3306  141.7284  158.5251 O.2     1  UNL1       -0.2523
      5 N         140.6985  141.1917  160.9873 N.am    1  UNL1       -0.2540
      6 C         140.3682  141.5046  162.4167 C.3     1  UNL1        0.1221
      7 C         140.1183  140.2085  163.1291 C.2     1  UNL1       -0.0024
      8 C         140.2941  139.0945  162.1401 C.2     1  UNL1       -0.0047
      9 C         140.6527  139.7021  160.8164 C.3     1  UNL1        0.1217
     10 C         139.7561  140.0535  164.5765 C.ar    1  UNL1        0.0271
     11 C         140.2346  141.0593  165.5812 C.ar    1  UNL1        0.0316
     12 C         139.8724  140.9043  167.0285 C.ar    1  UNL1        0.1403
     13 F         140.3509  141.9101  168.0333 F       1  UNL1       -0.2042
     14 C         139.0318  139.7434  167.4711 C.ar    1  UNL1        0.0319
     15 C         138.5534  138.7377  166.4664 C.ar    1  UNL1        0.0319
     16 C         138.9155  138.8927  165.0191 C.ar    1  UNL1        0.1400
     17 F         138.4371  137.8869  164.0143 F       1  UNL1       -0.2042
     18 C         140.7139  144.1220  161.6299 C.3     1  UNL1        0.0796
     19 C         141.8233  144.3293  162.6180 C.3     1  UNL1        0.0370
     20 C         141.5110  144.7936  164.0098 C.3     1  UNL1        0.0703
     21 N         140.0894  145.0505  164.4135 N.3     1  UNL1       -0.2974
     22 C         138.9800  144.8432  163.4254 C.3     1  UNL1        0.0703
     23 C         139.2923  144.3789  162.0336 C.3     1  UNL1        0.0370
     24 H         140.0395  146.0246  164.7121 H       1  UNL1        0.1232
     25 C         140.9188  138.9520  159.5450 C.ar    1  UNL1       -0.0001
     26 C         139.7903  138.6429  158.6064 C.ar    1  UNL1       -0.0023
     27 C         140.0563  137.8927  157.3350 C.ar    1  UNL1       -0.0003
     28 C         141.4509  137.4517  157.0022 C.ar    1  UNL1       -0.0000
     29 C         142.5794  137.7608  157.9408 C.ar    1  UNL1       -0.0003
     30 C         142.3133  138.5110  159.2122 C.ar    1  UNL1       -0.0023
@<TRIPOS>BOND
     1     1     2    1
     2     2     3   am
     3     3     4    2
     4     3     5   am
     5     5     6    1
     6     6     7    1
     7     7    10    1
     8    10    11   ar
     9    11    12   ar
    10    12    13    1
    11    12    14   ar
    12    14    15   ar
    13    15    16   ar
    14    16    17    1
    15     7     8    2
    16     8     9    1
    17     9    25    1
    18    25    26   ar
    19    26    27   ar
    20    27    28   ar
    21    28    29   ar
    22    29    30   ar
    23     2    18    1
    24    18    19    1
    25    19    20    1
    26    20    21    1
    27    21    22    1
    28    22    23    1
    29     9     5    1
    30    30    25   ar
    31    23    18    1
    32    16    10   ar
    33    21    24    1
@<TRIPOS>MOLECULE
*****
 30 33 0 0 0
SMALL
GASTEIGER

@<TRIPOS>ATOM
      1 C         143.2337  142.3528  167.0688 C.3     1  UNL1        0.1164
      2 N         142.5030  142.2784  165.7609 N.am    1  UNL1       -0.2638
      3 C         141.3786  141.3013  165.5844 C.2     1  UNL1        0.3078
      4 O         140.9849  140.3987  166.7159 O.2     1  UNL1       -0.2523
      5 N         140.6479  141.2269  164.2765 N.am    1  UNL1       -0.2540
      6 C         140.9276  142.0611  163.0617 C.3     1  UNL1        0.1221
      7 C         139.9618  141.6550  161.9882 C.2     1  UNL1       -0.0024
      8 C         139.0853  140.5698  162.5396 C.2     1  UNL1       -0.0047
      9 C         139.5093  140.3052  163.9539 C.3     1  UNL1        0.1217
     10 C         139.8859  142.2327  160.6059 C.ar    1  UNL1        0.0271
     11 C         140.0080  143.7141  160.4044 C.ar    1  UNL1        0.0316
     12 C         139.9320  144.2917  159.0222 C.ar    1  UNL1        0.1403
     13 F         140.0542  145.7731  158.8206 F       1  UNL1       -0.2042
     14 C         139.7340  143.3879  157.8415 C.ar    1  UNL1        0.0319
     15 C         139.6119  141.9066  158.0430 C.ar    1  UNL1        0.0319
     16 C         139.6878  141.3290  159.4252 C.ar    1  UNL1        0.1400
     17 F         139.5657  139.8475  159.6268 F       1  UNL1       -0.2042
     18 C         142.8967  143.1810  164.6294 C.3     1  UNL1        0.0796
     19 C         144.0632  142.8242  163.7564 C.3     1  UNL1        0.0370
     20 C         144.4569  143.7269  162.6248 C.3     1  UNL1        0.0703
     21 N         143.6841  144.9863  162.3664 N.3     1  UNL1       -0.2974
     22 C         142.5177  145.3430  163.2394 C.3     1  UNL1        0.0703
     23 C         142.1240  144.4403  164.3709 C.3     1  UNL1        0.0370
     24 H         143.3294  144.9234  161.4121 H       1  UNL1        0.1232
     25 C         138.9015  139.2961  164.8824 C.ar    1  UNL1       -0.0001
     26 C         139.0864  137.8304  164.6222 C.ar    1  UNL1       -0.0023
     27 C         138.4785  136.8213  165.5508 C.ar    1  UNL1       -0.0003
     28 C         137.6859  137.2779  166.7396 C.ar    1  UNL1       -0.0000
     29 C         137.5010  138.7436  166.9998 C.ar    1  UNL1       -0.0003
     30 C         138.1088  139.7527  166.0712 C.ar    1  UNL1       -0.0023
@<TRIPOS>BOND
     1     1     2    1
     2     2     3   am
     3     3     4    2
     4     3     5   am
     5     5     6    1
     6     6     7    1
     7     7    10    1
     8    10    11   ar
     9    11    12   ar
    10    12    13    1
    11    12    14   ar
    12    14    15   ar
    13    15    16   ar
    14    16    17    1
    15     7     8    2
    16     8     9    1
    17     9    25    1
    18    25    26   ar
    19    26    27   ar
    20    27    28   ar
    21    28    29   ar
    22    29    30   ar
    23     2    18    1
    24    18    19    1
    25    19    20    1
    26    20    21    1
    27    21    22    1
    28    22    23    1
    29     9     5    1
    30    30    25   ar
    31    23    18    1
    32    16    10   ar
    33    21    24    1
