@<TRIPOS>MOLECULE
*****
 33 37 0 0 0
SMALL
GASTEIGER

@<TRIPOS>ATOM
      1 O         137.8083  139.1158  168.8779 O.2     1  UNL1       -0.2683
      2 C         139.0336  139.8688  168.4517 C.2     1  UNL1        0.2669
      3 N         139.2906  140.1203  166.9954 N.am    1  UNL1       -0.2748
      4 C         138.3223  139.6189  165.9654 C.3     1  UNL1        0.0938
      5 C         138.5794  139.8705  164.5092 C.3     1  UNL1        0.0217
      6 C         139.8047  140.6234  164.0830 C.3     1  UNL1        0.0060
      7 C         138.8364  140.1220  163.0529 C.3     1  UNL1        0.0175
      8 C         139.0935  140.3736  161.5967 C.3     1  UNL1        0.0724
      9 N         140.3188  141.1265  161.1705 N.3     1  UNL1       -0.2689
     10 C         141.2871  141.6279  162.2005 C.3     1  UNL1        0.0724
     11 C         141.0300  141.3764  163.6568 C.3     1  UNL1        0.0175
     12 C         140.7730  141.1248  165.1130 C.3     1  UNL1        0.0217
     13 C         140.5160  140.8733  166.5692 C.3     1  UNL1        0.0938
     14 C         140.0019  140.3702  169.4817 C.ar    1  UNL1        0.1380
     15 C         141.3053  139.6590  169.6948 C.ar    1  UNL1        0.0445
     16 C         142.2736  140.1605  170.7249 C.ar    1  UNL1        0.1024
     17 N         141.9385  141.3731  171.5418 N.ar    1  UNL1       -0.2224
     18 C         140.6351  142.0842  171.3287 C.ar    1  UNL1        0.1990
     19 N         139.6668  141.5828  170.2987 N.ar    1  UNL1       -0.2193
     20 C         140.5758  141.3781  159.7142 C.3     1  UNL1        0.1022
     21 C         140.9240  142.7584  159.2415 C.ar    1  UNL1        0.0284
     22 C         142.1344  142.9738  158.3822 C.ar    1  UNL1        0.0001
     23 C         142.4826  144.3541  157.9095 C.ar    1  UNL1       -0.0001
     24 C         141.6203  145.5191  158.2962 C.ar    1  UNL1        0.0031
     25 C         140.4099  145.3037  159.1555 C.ar    1  UNL1        0.0372
     26 C         140.0617  143.9232  159.6282 C.ar    1  UNL1        0.1426
     27 O         138.8513  143.7078  160.4875 O.3     1  UNL1       -0.4538
     28 C         138.9050  144.0269  161.9523 C.ar    1  UNL1        0.1453
     29 C         137.7810  143.6078  162.8528 C.ar    1  UNL1        0.0375
     30 C         137.8347  143.9269  164.3175 C.ar    1  UNL1        0.0031
     31 C         139.0124  144.6650  164.8816 C.ar    1  UNL1        0.0002
     32 C         140.1364  145.0841  163.9810 C.ar    1  UNL1        0.0031
     33 C         140.0827  144.7650  162.5164 C.ar    1  UNL1        0.0375
@<TRIPOS>BOND
     1     1     2    2
     2     2    14    1
     3    14    15   ar
     4    15    16   ar
     5    16    17   ar
     6    17    18   ar
     7    18    19   ar
     8     2     3   am
     9     3     4    1
    10     4     5    1
    11     5     6    1
    12     6     7    1
    13     7     8    1
    14     8     9    1
    15     9    20    1
    16    20    21    1
    17    21    22   ar
    18    22    23   ar
    19    23    24   ar
    20    24    25   ar
    21    25    26   ar
    22    26    27    1
    23    27    28    1
    24    28    29   ar
    25    29    30   ar
    26    30    31   ar
    27    31    32   ar
    28    32    33   ar
    29     9    10    1
    30    10    11    1
    31     6    12    1
    32    12    13    1
    33    19    14   ar
    34    13     3    1
    35    11     6    1
    36    26    21   ar
    37    33    28   ar
@<TRIPOS>MOLECULE
*****
 33 37 0 0 0
SMALL
GASTEIGER

@<TRIPOS>ATOM
      1 O         143.0821  138.5487  169.4464 O.2     1  UNL1       -0.2683
      2 C         142.2034  139.4598  168.6415 C.2     1  UNL1        0.2669
      3 N         142.3547  139.5234  167.1505 N.am    1  UNL1       -0.2748
      4 C         143.3846  138.6759  166.4644 C.3     1  UNL1        0.0938
      5 C         143.5359  138.7394  164.9734 C.3     1  UNL1        0.0217
      6 C         142.6571  139.6505  164.1686 C.3     1  UNL1        0.0060
      7 C         143.6872  138.8030  163.4823 C.3     1  UNL1        0.0175
      8 C         143.8384  138.8665  161.9914 C.3     1  UNL1        0.0724
      9 N         142.9597  139.7776  161.1865 N.3     1  UNL1       -0.2689
     10 C         141.9297  140.6251  161.8727 C.3     1  UNL1        0.0724
     11 C         141.7784  140.5616  163.3637 C.3     1  UNL1        0.0175
     12 C         141.6272  140.4980  164.8547 C.3     1  UNL1        0.0217
     13 C         141.4759  140.4344  166.3457 C.3     1  UNL1        0.0938
     14 C         141.1734  140.3073  169.3277 C.ar    1  UNL1        0.1380
     15 C         141.5272  141.6893  169.7913 C.ar    1  UNL1        0.0445
     16 C         140.4971  142.5368  170.4775 C.ar    1  UNL1        0.1024
     17 N         139.1133  142.0023  170.7000 N.ar    1  UNL1       -0.2224
     18 C         138.7596  140.6204  170.2363 C.ar    1  UNL1        0.1990
     19 N         139.7896  139.7729  169.5502 N.ar    1  UNL1       -0.2193
     20 C         143.1110  139.8412  159.6955 C.3     1  UNL1        0.1022
     21 C         142.7687  141.1028  158.9600 C.ar    1  UNL1        0.0284
     22 C         141.5873  141.1354  158.0362 C.ar    1  UNL1        0.0001
     23 C         141.2450  142.3971  157.3007 C.ar    1  UNL1       -0.0001
     24 C         142.0840  143.6262  157.4890 C.ar    1  UNL1        0.0031
     25 C         143.2653  143.5936  158.4128 C.ar    1  UNL1        0.0372
     26 C         143.6076  142.3319  159.1483 C.ar    1  UNL1        0.1426
     27 O         144.7889  142.2992  160.0722 O.3     1  UNL1       -0.4538
     28 C         144.6194  142.6560  161.5193 C.ar    1  UNL1        0.1453
     29 C         143.6517  143.7302  161.9185 C.ar    1  UNL1        0.0375
     30 C         143.4822  144.0869  163.3656 C.ar    1  UNL1        0.0031
     31 C         144.2805  143.3693  164.4134 C.ar    1  UNL1        0.0002
     32 C         145.2482  142.2951  164.0141 C.ar    1  UNL1        0.0031
     33 C         145.4177  141.9384  162.5671 C.ar    1  UNL1        0.0375
@<TRIPOS>BOND
     1     1     2    2
     2     2    14    1
     3    14    15   ar
     4    15    16   ar
     5    16    17   ar
     6    17    18   ar
     7    18    19   ar
     8     2     3   am
     9     3     4    1
    10     4     5    1
    11     5     6    1
    12     6     7    1
    13     7     8    1
    14     8     9    1
    15     9    20    1
    16    20    21    1
    17    21    22   ar
    18    22    23   ar
    19    23    24   ar
    20    24    25   ar
    21    25    26   ar
    22    26    27    1
    23    27    28    1
    24    28    29   ar
    25    29    30   ar
    26    30    31   ar
    27    31    32   ar
    28    32    33   ar
    29     9    10    1
    30    10    11    1
    31     6    12    1
    32    12    13    1
    33    19    14   ar
    34    13     3    1
    35    11     6    1
    36    26    21   ar
    37    33    28   ar
@<TRIPOS>MOLECULE
*****
 33 37 0 0 0
SMALL
GASTEIGER

@<TRIPOS>ATOM
      1 O         142.8809  141.1866  158.0357 O.2     1  UNL1       -0.2683
      2 C         142.5255  139.9101  158.7388 C.2     1  UNL1        0.2669
      3 N         142.5530  139.8464  160.2372 N.am    1  UNL1       -0.2748
      4 C         142.9360  141.0591  161.0326 C.3     1  UNL1        0.0938
      5 C         142.9635  140.9954  162.5309 C.3     1  UNL1        0.0217
      6 C         142.6081  139.7189  163.2340 C.3     1  UNL1        0.0060
      7 C         142.9911  140.9317  164.0294 C.3     1  UNL1        0.0175
      8 C         143.0186  140.8679  165.5277 C.3     1  UNL1        0.0724
      9 N         142.6632  139.5914  166.2308 N.3     1  UNL1       -0.2689
     10 C         142.2802  138.3787  165.4354 C.3     1  UNL1        0.0724
     11 C         142.2527  138.4424  163.9370 C.3     1  UNL1        0.0175
     12 C         142.2251  138.5062  162.4386 C.3     1  UNL1        0.0217
     13 C         142.1976  138.5699  160.9403 C.3     1  UNL1        0.0938
     14 C         142.1425  138.6974  157.9435 C.ar    1  UNL1        0.1380
     15 C         140.7298  138.5271  157.4688 C.ar    1  UNL1        0.0445
     16 C         140.3469  137.3143  156.6734 C.ar    1  UNL1        0.1024
     17 N         141.3766  136.2718  156.3528 N.ar    1  UNL1       -0.2224
     18 C         142.7893  136.4421  156.8275 C.ar    1  UNL1        0.1990
     19 N         143.1723  137.6548  157.6228 N.ar    1  UNL1       -0.2193
     20 C         142.6907  139.5277  167.7292 C.3     1  UNL1        0.1022
     21 C         142.1862  140.6855  168.5385 C.ar    1  UNL1        0.0284
     22 C         143.1568  141.6446  169.1615 C.ar    1  UNL1        0.0001
     23 C         142.6523  142.8024  169.9708 C.ar    1  UNL1       -0.0001
     24 C         141.1771  143.0011  170.1571 C.ar    1  UNL1        0.0031
     25 C         140.2066  142.0419  169.5341 C.ar    1  UNL1        0.0372
     26 C         140.7112  140.8841  168.7248 C.ar    1  UNL1        0.1426
     27 O         139.7407  139.9250  168.1018 O.3     1  UNL1       -0.4538
     28 C         139.3748  140.0630  166.6536 C.ar    1  UNL1        0.1453
     29 C         139.5422  141.3825  165.9602 C.ar    1  UNL1        0.0375
     30 C         139.1763  141.5204  164.5121 C.ar    1  UNL1        0.0031
     31 C         138.6430  140.3389  163.7574 C.ar    1  UNL1        0.0002
     32 C         138.4755  139.0194  164.4508 C.ar    1  UNL1        0.0031
     33 C         138.8414  138.8815  165.8989 C.ar    1  UNL1        0.0375
@<TRIPOS>BOND
     1     1     2    2
     2     2    14    1
     3    14    15   ar
     4    15    16   ar
     5    16    17   ar
     6    17    18   ar
     7    18    19   ar
     8     2     3   am
     9     3     4    1
    10     4     5    1
    11     5     6    1
    12     6     7    1
    13     7     8    1
    14     8     9    1
    15     9    20    1
    16    20    21    1
    17    21    22   ar
    18    22    23   ar
    19    23    24   ar
    20    24    25   ar
    21    25    26   ar
    22    26    27    1
    23    27    28    1
    24    28    29   ar
    25    29    30   ar
    26    30    31   ar
    27    31    32   ar
    28    32    33   ar
    29     9    10    1
    30    10    11    1
    31     6    12    1
    32    12    13    1
    33    19    14   ar
    34    13     3    1
    35    11     6    1
    36    26    21   ar
    37    33    28   ar
@<TRIPOS>MOLECULE
*****
 33 37 0 0 0
SMALL
GASTEIGER

@<TRIPOS>ATOM
      1 O         143.3460  138.7703  167.6651 O.2     1  UNL1       -0.2683
      2 C         142.2208  139.7615  167.7017 C.2     1  UNL1        0.2669
      3 N         141.5848  140.2217  166.4234 N.am    1  UNL1       -0.2748
      4 C         142.0741  139.6906  165.1087 C.3     1  UNL1        0.0938
      5 C         141.4381  140.1508  163.8305 C.3     1  UNL1        0.0217
      6 C         140.3129  141.1420  163.8671 C.3     1  UNL1        0.0060
      7 C         140.8022  140.6109  162.5522 C.3     1  UNL1        0.0175
      8 C         140.1662  141.0710  161.2741 C.3     1  UNL1        0.0724
      9 N         139.0409  142.0622  161.3106 N.3     1  UNL1       -0.2689
     10 C         138.5516  142.5933  162.6253 C.3     1  UNL1        0.0724
     11 C         139.1876  142.1331  163.9036 C.3     1  UNL1        0.0175
     12 C         139.8236  141.6730  165.1818 C.3     1  UNL1        0.0217
     13 C         140.4595  141.2129  166.4599 C.3     1  UNL1        0.0938
     14 C         141.7315  140.2926  169.0164 C.ar    1  UNL1        0.1380
     15 C         142.4259  141.4556  169.6607 C.ar    1  UNL1        0.0445
     16 C         141.9365  141.9866  170.9755 C.ar    1  UNL1        0.1024
     17 N         140.7528  141.3547  171.6459 N.ar    1  UNL1       -0.2224
     18 C         140.0584  140.1916  171.0015 C.ar    1  UNL1        0.1990
     19 N         140.5477  139.6606  169.6868 N.ar    1  UNL1       -0.2193
     20 C         138.4050  142.5224  160.0324 C.3     1  UNL1        0.1022
     21 C         139.2630  142.9721  158.8872 C.ar    1  UNL1        0.0284
     22 C         139.3550  142.1360  157.6453 C.ar    1  UNL1        0.0001
     23 C         140.2130  142.5858  156.5002 C.ar    1  UNL1       -0.0001
     24 C         140.9792  143.8718  156.5969 C.ar    1  UNL1        0.0031
     25 C         140.8873  144.7079  157.8389 C.ar    1  UNL1        0.0372
     26 C         140.0291  144.2581  158.9840 C.ar    1  UNL1        0.1426
     27 O         139.9372  145.0942  160.2260 O.3     1  UNL1       -0.4538
     28 C         140.9118  144.8826  161.3464 C.ar    1  UNL1        0.1453
     29 C         142.1210  144.0204  161.1358 C.ar    1  UNL1        0.0375
     30 C         143.0956  143.8089  162.2563 C.ar    1  UNL1        0.0031
     31 C         142.8610  144.4596  163.5873 C.ar    1  UNL1        0.0002
     32 C         141.6518  145.3218  163.7979 C.ar    1  UNL1        0.0031
     33 C         140.6772  145.5333  162.6774 C.ar    1  UNL1        0.0375
@<TRIPOS>BOND
     1     1     2    2
     2     2    14    1
     3    14    15   ar
     4    15    16   ar
     5    16    17   ar
     6    17    18   ar
     7    18    19   ar
     8     2     3   am
     9     3     4    1
    10     4     5    1
    11     5     6    1
    12     6     7    1
    13     7     8    1
    14     8     9    1
    15     9    20    1
    16    20    21    1
    17    21    22   ar
    18    22    23   ar
    19    23    24   ar
    20    24    25   ar
    21    25    26   ar
    22    26    27    1
    23    27    28    1
    24    28    29   ar
    25    29    30   ar
    26    30    31   ar
    27    31    32   ar
    28    32    33   ar
    29     9    10    1
    30    10    11    1
    31     6    12    1
    32    12    13    1
    33    19    14   ar
    34    13     3    1
    35    11     6    1
    36    26    21   ar
    37    33    28   ar
@<TRIPOS>MOLECULE
*****
 33 37 0 0 0
SMALL
GASTEIGER

@<TRIPOS>ATOM
      1 O         144.0076  139.2271  157.6191 O.2     1  UNL1       -0.2683
      2 C         142.7206  139.1401  158.3847 C.2     1  UNL1        0.2669
      3 N         142.7348  139.1914  159.8838 N.am    1  UNL1       -0.2748
      4 C         144.0359  139.3297  160.6173 C.3     1  UNL1        0.0938
      5 C         144.0500  139.3810  162.1163 C.3     1  UNL1        0.0217
      6 C         142.7630  139.2940  162.8819 C.3     1  UNL1        0.0060
      7 C         144.0641  139.4323  163.6154 C.3     1  UNL1        0.0175
      8 C         144.0782  139.4836  165.1144 C.3     1  UNL1        0.0724
      9 N         142.7912  139.3966  165.8800 N.3     1  UNL1       -0.2689
     10 C         141.4901  139.2583  165.1465 C.3     1  UNL1        0.0724
     11 C         141.4760  139.2070  163.6474 C.3     1  UNL1        0.0175
     12 C         141.4619  139.1557  162.1484 C.3     1  UNL1        0.0217
     13 C         141.4478  139.1044  160.6494 C.3     1  UNL1        0.0938
     14 C         141.4196  139.0018  157.6512 C.ar    1  UNL1        0.1380
     15 C         140.6051  140.2204  157.3325 C.ar    1  UNL1        0.0445
     16 C         139.3039  140.0821  156.5990 C.ar    1  UNL1        0.1024
     17 N         138.8173  138.7252  156.1843 N.ar    1  UNL1       -0.2224
     18 C         139.6318  137.5066  156.5030 C.ar    1  UNL1        0.1990
     19 N         140.9329  137.6449  157.2364 N.ar    1  UNL1       -0.2193
     20 C         142.8054  139.4479  167.3791 C.3     1  UNL1        0.1022
     21 C         141.8791  140.3767  168.1065 C.ar    1  UNL1        0.0284
     22 C         140.6971  139.8277  168.8491 C.ar    1  UNL1        0.0001
     23 C         139.7709  140.7566  169.5765 C.ar    1  UNL1       -0.0001
     24 C         140.0266  142.2346  169.5614 C.ar    1  UNL1        0.0031
     25 C         141.2086  142.7836  168.8188 C.ar    1  UNL1        0.0372
     26 C         142.1348  141.8547  168.0914 C.ar    1  UNL1        0.1426
     27 O         143.3168  142.4037  167.3488 O.3     1  UNL1       -0.4538
     28 C         143.2013  142.7263  165.8884 C.ar    1  UNL1        0.1453
     29 C         144.4360  142.9906  165.0787 C.ar    1  UNL1        0.0375
     30 C         144.3204  143.3131  163.6184 C.ar    1  UNL1        0.0031
     31 C         142.9701  143.3715  162.9678 C.ar    1  UNL1        0.0002
     32 C         141.7354  143.1073  163.7775 C.ar    1  UNL1        0.0031
     33 C         141.8510  142.7847  165.2378 C.ar    1  UNL1        0.0375
@<TRIPOS>BOND
     1     1     2    2
     2     2    14    1
     3    14    15   ar
     4    15    16   ar
     5    16    17   ar
     6    17    18   ar
     7    18    19   ar
     8     2     3   am
     9     3     4    1
    10     4     5    1
    11     5     6    1
    12     6     7    1
    13     7     8    1
    14     8     9    1
    15     9    20    1
    16    20    21    1
    17    21    22   ar
    18    22    23   ar
    19    23    24   ar
    20    24    25   ar
    21    25    26   ar
    22    26    27    1
    23    27    28    1
    24    28    29   ar
    25    29    30   ar
    26    30    31   ar
    27    31    32   ar
    28    32    33   ar
    29     9    10    1
    30    10    11    1
    31     6    12    1
    32    12    13    1
    33    19    14   ar
    34    13     3    1
    35    11     6    1
    36    26    21   ar
    37    33    28   ar
@<TRIPOS>MOLECULE
*****
 33 37 0 0 0
SMALL
GASTEIGER

@<TRIPOS>ATOM
      1 O         143.3870  138.6240  167.7101 O.2     1  UNL1       -0.2683
      2 C         142.5060  139.8366  167.7685 C.2     1  UNL1        0.2669
      3 N         142.2196  140.6163  166.5194 N.am    1  UNL1       -0.2748
      4 C         142.8141  140.1834  165.2121 C.3     1  UNL1        0.0938
      5 C         142.5276  140.9632  163.9632 C.3     1  UNL1        0.0217
      6 C         141.6466  142.1758  164.0216 C.3     1  UNL1        0.0060
      7 C         142.2411  141.7429  162.7142 C.3     1  UNL1        0.0175
      8 C         141.9546  142.5227  161.4652 C.3     1  UNL1        0.0724
      9 N         141.0737  143.7353  161.5236 N.3     1  UNL1       -0.2689
     10 C         140.4791  144.1682  162.8309 C.3     1  UNL1        0.0724
     11 C         140.7656  143.3884  164.0799 C.3     1  UNL1        0.0175
     12 C         141.0521  142.6087  165.3289 C.3     1  UNL1        0.0217
     13 C         141.3386  141.8289  166.5778 C.3     1  UNL1        0.0938
     14 C         141.9115  140.2695  169.0758 C.ar    1  UNL1        0.1380
     15 C         142.6141  141.2939  169.9166 C.ar    1  UNL1        0.0445
     16 C         142.0195  141.7268  171.2240 C.ar    1  UNL1        0.1024
     17 N         140.7224  141.1352  171.6905 N.ar    1  UNL1       -0.2224
     18 C         140.0199  140.1108  170.8497 C.ar    1  UNL1        0.1990
     19 N         140.6144  139.6779  169.5424 N.ar    1  UNL1       -0.2193
     20 C         140.7872  144.5150  160.2746 C.3     1  UNL1        0.1022
     21 C         140.3212  143.8056  159.0378 C.ar    1  UNL1        0.0284
     22 C         141.1681  143.8216  157.7999 C.ar    1  UNL1        0.0001
     23 C         140.7020  143.1122  156.5632 C.ar    1  UNL1       -0.0001
     24 C         139.3891  142.3867  156.5644 C.ar    1  UNL1        0.0031
     25 C         138.5422  142.3707  157.8023 C.ar    1  UNL1        0.0372
     26 C         139.0083  143.0802  159.0391 C.ar    1  UNL1        0.1426
     27 O         138.1614  143.0642  160.2770 O.3     1  UNL1       -0.4538
     28 C         138.2722  141.9252  161.2469 C.ar    1  UNL1        0.1453
     29 C         139.0279  140.6867  160.8661 C.ar    1  UNL1        0.0375
     30 C         139.1387  139.5478  161.8358 C.ar    1  UNL1        0.0031
     31 C         138.4937  139.6473  163.1864 C.ar    1  UNL1        0.0002
     32 C         137.7380  140.8858  163.5672 C.ar    1  UNL1        0.0031
     33 C         137.6272  142.0247  162.5974 C.ar    1  UNL1        0.0375
@<TRIPOS>BOND
     1     1     2    2
     2     2    14    1
     3    14    15   ar
     4    15    16   ar
     5    16    17   ar
     6    17    18   ar
     7    18    19   ar
     8     2     3   am
     9     3     4    1
    10     4     5    1
    11     5     6    1
    12     6     7    1
    13     7     8    1
    14     8     9    1
    15     9    20    1
    16    20    21    1
    17    21    22   ar
    18    22    23   ar
    19    23    24   ar
    20    24    25   ar
    21    25    26   ar
    22    26    27    1
    23    27    28    1
    24    28    29   ar
    25    29    30   ar
    26    30    31   ar
    27    31    32   ar
    28    32    33   ar
    29     9    10    1
    30    10    11    1
    31     6    12    1
    32    12    13    1
    33    19    14   ar
    34    13     3    1
    35    11     6    1
    36    26    21   ar
    37    33    28   ar
@<TRIPOS>MOLECULE
*****
 33 37 0 0 0
SMALL
GASTEIGER

@<TRIPOS>ATOM
      1 O         138.1620  139.5777  169.8083 O.2     1  UNL1       -0.2683
      2 C         139.2220  140.2355  168.9753 C.2     1  UNL1        0.2669
      3 N         139.3257  139.9247  167.5114 N.am    1  UNL1       -0.2748
      4 C         138.3696  138.9563  166.8807 C.3     1  UNL1        0.0938
      5 C         138.4734  138.6456  165.4169 C.3     1  UNL1        0.0217
      6 C         139.5334  139.3034  164.5839 C.3     1  UNL1        0.0060
      7 C         138.5772  138.3349  163.9531 C.3     1  UNL1        0.0175
      8 C         138.6810  138.0242  162.4893 C.3     1  UNL1        0.0724
      9 N         139.7410  138.6820  161.6563 N.3     1  UNL1       -0.2689
     10 C         140.6971  139.6504  162.2871 C.3     1  UNL1        0.0724
     11 C         140.5933  139.9612  163.7509 C.3     1  UNL1        0.0175
     12 C         140.4895  140.2718  165.2147 C.3     1  UNL1        0.0217
     13 C         140.3857  140.5825  166.6784 C.3     1  UNL1        0.0938
     14 C         140.1781  141.2039  169.6061 C.ar    1  UNL1        0.1380
     15 C         141.2693  140.7027  170.5050 C.ar    1  UNL1        0.0445
     16 C         142.2254  141.6713  171.1358 C.ar    1  UNL1        0.1024
     17 N         142.0904  143.1409  170.8676 N.ar    1  UNL1       -0.2224
     18 C         140.9992  143.6420  169.9686 C.ar    1  UNL1        0.1990
     19 N         140.0430  142.6736  169.3379 N.ar    1  UNL1       -0.2193
     20 C         139.8447  138.3713  160.1925 C.3     1  UNL1        0.1022
     21 C         140.1685  139.4623  159.2153 C.ar    1  UNL1        0.0284
     22 C         141.3642  139.3354  158.3185 C.ar    1  UNL1        0.0001
     23 C         141.6879  140.4264  157.3414 C.ar    1  UNL1       -0.0001
     24 C         140.8159  141.6443  157.2609 C.ar    1  UNL1        0.0031
     25 C         139.6202  141.7711  158.1577 C.ar    1  UNL1        0.0372
     26 C         139.2965  140.6801  159.1349 C.ar    1  UNL1        0.1426
     27 O         138.1008  140.8069  160.0316 O.3     1  UNL1       -0.4538
     28 C         138.1577  141.6997  161.2357 C.ar    1  UNL1        0.1453
     29 C         137.3499  141.3669  162.4550 C.ar    1  UNL1        0.0375
     30 C         137.4068  142.2597  163.6590 C.ar    1  UNL1        0.0031
     31 C         138.2715  143.4853  163.6437 C.ar    1  UNL1        0.0002
     32 C         139.0792  143.8181  162.4244 C.ar    1  UNL1        0.0031
     33 C         139.0223  142.9253  161.2204 C.ar    1  UNL1        0.0375
@<TRIPOS>BOND
     1     1     2    2
     2     2    14    1
     3    14    15   ar
     4    15    16   ar
     5    16    17   ar
     6    17    18   ar
     7    18    19   ar
     8     2     3   am
     9     3     4    1
    10     4     5    1
    11     5     6    1
    12     6     7    1
    13     7     8    1
    14     8     9    1
    15     9    20    1
    16    20    21    1
    17    21    22   ar
    18    22    23   ar
    19    23    24   ar
    20    24    25   ar
    21    25    26   ar
    22    26    27    1
    23    27    28    1
    24    28    29   ar
    25    29    30   ar
    26    30    31   ar
    27    31    32   ar
    28    32    33   ar
    29     9    10    1
    30    10    11    1
    31     6    12    1
    32    12    13    1
    33    19    14   ar
    34    13     3    1
    35    11     6    1
    36    26    21   ar
    37    33    28   ar
@<TRIPOS>MOLECULE
*****
 33 37 0 0 0
SMALL
GASTEIGER

@<TRIPOS>ATOM
      1 O         143.1972  138.4354  169.1047 O.2     1  UNL1       -0.2683
      2 C         142.6886  139.6559  168.3964 C.2     1  UNL1        0.2669
      3 N         142.5672  139.6594  166.9013 N.am    1  UNL1       -0.2748
      4 C         142.9544  138.4424  166.1146 C.3     1  UNL1        0.0938
      5 C         142.8330  138.4460  164.6195 C.3     1  UNL1        0.0217
      6 C         142.3244  139.6664  163.9112 C.3     1  UNL1        0.0060
      7 C         142.7117  138.4494  163.1244 C.3     1  UNL1        0.0175
      8 C         142.5903  138.4530  161.6293 C.3     1  UNL1        0.0724
      9 N         142.0817  139.6734  160.9210 N.3     1  UNL1       -0.2689
     10 C         141.6944  140.8904  161.7077 C.3     1  UNL1        0.0724
     11 C         141.8158  140.8869  163.2029 C.3     1  UNL1        0.0175
     12 C         141.9372  140.8834  164.6979 C.3     1  UNL1        0.0217
     13 C         142.0586  140.8799  166.1930 C.3     1  UNL1        0.0938
     14 C         142.3013  140.8729  169.1831 C.ar    1  UNL1        0.1380
     15 C         143.3493  141.8629  169.5975 C.ar    1  UNL1        0.0445
     16 C         142.9620  143.0799  170.3843 C.ar    1  UNL1        0.1024
     17 N         141.5268  143.3069  170.7566 N.ar    1  UNL1       -0.2224
     18 C         140.4789  142.3169  170.3423 C.ar    1  UNL1        0.1990
     19 N         140.8661  141.0999  169.5555 N.ar    1  UNL1       -0.2193
     20 C         141.9603  139.6769  159.4259 C.3     1  UNL1        0.1022
     21 C         140.7637  140.3019  158.7720 C.ar    1  UNL1        0.0284
     22 C         140.9390  141.4691  157.8463 C.ar    1  UNL1        0.0001
     23 C         139.7425  142.0940  157.1924 C.ar    1  UNL1       -0.0001
     24 C         138.3705  141.5518  157.4643 C.ar    1  UNL1        0.0031
     25 C         138.1952  140.3846  158.3900 C.ar    1  UNL1        0.0372
     26 C         139.3919  139.7597  159.0438 C.ar    1  UNL1        0.1426
     27 O         139.2166  138.5925  159.9695 O.3     1  UNL1       -0.4538
     28 C         138.9293  138.8248  161.4234 C.ar    1  UNL1        0.1453
     29 C         138.3371  140.1279  161.8719 C.ar    1  UNL1        0.0375
     30 C         138.0498  140.3601  163.3257 C.ar    1  UNL1        0.0031
     31 C         138.3547  139.2894  164.3309 C.ar    1  UNL1        0.0002
     32 C         138.9470  137.9863  163.8823 C.ar    1  UNL1        0.0031
     33 C         139.2342  137.7540  162.4286 C.ar    1  UNL1        0.0375
@<TRIPOS>BOND
     1     1     2    2
     2     2    14    1
     3    14    15   ar
     4    15    16   ar
     5    16    17   ar
     6    17    18   ar
     7    18    19   ar
     8     2     3   am
     9     3     4    1
    10     4     5    1
    11     5     6    1
    12     6     7    1
    13     7     8    1
    14     8     9    1
    15     9    20    1
    16    20    21    1
    17    21    22   ar
    18    22    23   ar
    19    23    24   ar
    20    24    25   ar
    21    25    26   ar
    22    26    27    1
    23    27    28    1
    24    28    29   ar
    25    29    30   ar
    26    30    31   ar
    27    31    32   ar
    28    32    33   ar
    29     9    10    1
    30    10    11    1
    31     6    12    1
    32    12    13    1
    33    19    14   ar
    34    13     3    1
    35    11     6    1
    36    26    21   ar
    37    33    28   ar
@<TRIPOS>MOLECULE
*****
 33 37 0 0 0
SMALL
GASTEIGER

@<TRIPOS>ATOM
      1 O         138.5706  139.1440  167.8683 O.2     1  UNL1       -0.2683
      2 C         139.6448  140.1909  167.8542 C.2     1  UNL1        0.2669
      3 N         140.0594  140.8226  166.5583 N.am    1  UNL1       -0.2748
      4 C         139.3997  140.4075  165.2768 C.3     1  UNL1        0.0938
      5 C         139.8143  141.0393  163.9810 C.3     1  UNL1        0.0217
      6 C         140.8885  142.0861  163.9669 C.3     1  UNL1        0.0060
      7 C         140.2288  141.6710  162.6852 C.3     1  UNL1        0.0175
      8 C         140.6434  142.3027  161.3894 C.3     1  UNL1        0.0724
      9 N         141.7176  143.3496  161.3753 N.3     1  UNL1       -0.2689
     10 C         142.3772  143.7647  162.6569 C.3     1  UNL1        0.0724
     11 C         141.9627  143.1329  163.9527 C.3     1  UNL1        0.0175
     12 C         141.5481  142.5012  165.2484 C.3     1  UNL1        0.0217
     13 C         141.1336  141.8694  166.5442 C.3     1  UNL1        0.0938
     14 C         140.3045  140.6060  169.1358 C.ar    1  UNL1        0.1380
     15 C         139.7247  141.7246  169.9497 C.ar    1  UNL1        0.0445
     16 C         140.3844  142.1397  171.2314 C.ar    1  UNL1        0.1024
     17 N         141.6239  141.4361  171.6990 N.ar    1  UNL1       -0.2224
     18 C         142.2037  140.3175  170.8850 C.ar    1  UNL1        0.1990
     19 N         141.5440  139.9024  169.6035 N.ar    1  UNL1       -0.2193
     20 C         142.1321  143.9813  160.0794 C.3     1  UNL1        0.1022
     21 C         142.7070  143.1350  158.9826 C.ar    1  UNL1        0.0284
     22 C         141.9418  142.9386  157.7074 C.ar    1  UNL1        0.0001
     23 C         142.5167  142.0923  156.6106 C.ar    1  UNL1       -0.0001
     24 C         143.8569  141.4423  156.7888 C.ar    1  UNL1        0.0031
     25 C         144.6220  141.6387  158.0639 C.ar    1  UNL1        0.0372
     26 C         144.0471  142.4851  159.1608 C.ar    1  UNL1        0.1426
     27 O         144.8122  142.6815  160.4359 O.3     1  UNL1       -0.4538
     28 C         144.6957  141.6761  161.5430 C.ar    1  UNL1        0.1453
     29 C         143.8159  140.4731  161.3740 C.ar    1  UNL1        0.0375
     30 C         143.6993  139.4677  162.4811 C.ar    1  UNL1        0.0031
     31 C         144.4626  139.6654  163.7572 C.ar    1  UNL1        0.0002
     32 C         145.3424  140.8684  163.9262 C.ar    1  UNL1        0.0031
     33 C         145.4589  141.8738  162.8191 C.ar    1  UNL1        0.0375
@<TRIPOS>BOND
     1     1     2    2
     2     2    14    1
     3    14    15   ar
     4    15    16   ar
     5    16    17   ar
     6    17    18   ar
     7    18    19   ar
     8     2     3   am
     9     3     4    1
    10     4     5    1
    11     5     6    1
    12     6     7    1
    13     7     8    1
    14     8     9    1
    15     9    20    1
    16    20    21    1
    17    21    22   ar
    18    22    23   ar
    19    23    24   ar
    20    24    25   ar
    21    25    26   ar
    22    26    27    1
    23    27    28    1
    24    28    29   ar
    25    29    30   ar
    26    30    31   ar
    27    31    32   ar
    28    32    33   ar
    29     9    10    1
    30    10    11    1
    31     6    12    1
    32    12    13    1
    33    19    14   ar
    34    13     3    1
    35    11     6    1
    36    26    21   ar
    37    33    28   ar
