@<TRIPOS>MOLECULE
*****
 29 32 0 0 0
SMALL
GASTEIGER

@<TRIPOS>ATOM
      1 C         141.2146  138.4730  164.8873 C.ar    1  UNL1        0.1036
      2 C         140.7526  137.0782  164.5855 C.ar    1  UNL1        0.1197
      3 N         141.1077  136.7704  163.1611 N.ar    1  UNL1       -0.2234
      4 C         141.7893  137.9748  162.5825 C.ar    1  UNL1        0.1640
      5 C         142.3583  138.2493  161.2220 C.ar    1  UNL1        0.0417
      6 C         142.9933  139.5761  160.9285 C.ar    1  UNL1        0.0393
      7 C         143.0594  140.6285  161.9954 C.ar    1  UNL1        0.1525
      8 N         142.4904  140.3540  163.3558 N.ar    1  UNL1       -0.1486
      9 N         141.8554  139.0272  163.6494 N.ar    1  UNL1       -0.2096
     10 C         140.7588  140.6185  168.8166 C.ar    1  UNL1        0.1807
     11 C         139.5470  140.2936  167.9944 C.ar    1  UNL1        0.0520
     12 C         139.6989  139.5785  166.6847 C.ar    1  UNL1        0.0060
     13 C         141.0626  139.1882  166.1970 C.ar    1  UNL1        0.0196
     14 C         142.2745  139.5130  167.0193 C.ar    1  UNL1        0.0060
     15 C         142.1225  140.2282  168.3290 C.ar    1  UNL1        0.0520
     16 C         141.8037  141.5567  171.0024 C.3     1  UNL1        0.3254
     17 S         140.6068  141.3336  170.1264 S.O     1  UNL1        0.0581
     18 O         139.2578  141.8257  170.5600 O.co2   1  UNL1       -0.6774
     19 N         143.6945  141.9554  161.7017 N.pl3   1  UNL1       -0.2965
     20 H         144.4421  142.0128  161.0638 H       1  UNL1        0.1537
     21 C         143.1904  143.1946  162.3801 C.ar    1  UNL1        0.0538
     22 C         144.0621  143.9190  163.3627 C.ar    1  UNL1        0.0149
     23 C         143.5580  145.1583  164.0410 C.ar    1  UNL1        0.0057
     24 C         142.1823  145.6731  163.7369 C.ar    1  UNL1        0.0520
     25 C         141.3107  144.9486  162.7543 C.ar    1  UNL1        0.1820
     26 C         141.8147  143.7094  162.0759 C.ar    1  UNL1        0.0665
     27 S         139.9351  145.4634  162.4501 S.O     1  UNL1        0.0582
     28 C         138.7295  144.7082  162.9259 C.3     1  UNL1        0.3254
     29 O         139.7649  146.7333  161.6701 O.co2   1  UNL1       -0.6774
@<TRIPOS>UNITY_ATOM_ATTR
17 1
charge 1
18 1
charge -1
27 1
charge 1
29 1
charge -1
@<TRIPOS>BOND
     1    16    17    1
     2    17    18    2
     3    17    10    1
     4    10    11   ar
     5    11    12   ar
     6    12    13   ar
     7    13     1    1
     8     1     2   ar
     9     2     3   ar
    10     3     4   ar
    11     4     5   ar
    12     5     6   ar
    13     6     7   ar
    14     7    19    1
    15    19    21    1
    16    21    22   ar
    17    22    23   ar
    18    23    24   ar
    19    24    25   ar
    20    25    27    1
    21    27    28    1
    22    27    29    2
    23    25    26   ar
    24     7     8   ar
    25     8     9   ar
    26    13    14   ar
    27    14    15   ar
    28    15    10   ar
    29     9     1   ar
    30     9     4   ar
    31    26    21   ar
    32    19    20    1
@<TRIPOS>MOLECULE
*****
 29 32 0 0 0
SMALL
GASTEIGER

@<TRIPOS>ATOM
      1 C         140.6101  138.4990  164.7957 C.ar    1  UNL1        0.1036
      2 C         141.2374  137.1783  164.4607 C.ar    1  UNL1        0.1197
      3 N         140.9914  136.9040  163.0067 N.ar    1  UNL1       -0.2234
      4 C         140.2120  138.0550  162.4431 C.ar    1  UNL1        0.1640
      5 C         139.6865  138.3329  161.0659 C.ar    1  UNL1        0.0417
      6 C         138.9253  139.5966  160.7945 C.ar    1  UNL1        0.0393
      7 C         138.6896  140.5824  161.9002 C.ar    1  UNL1        0.1525
      8 N         139.2152  140.3045  163.2774 N.ar    1  UNL1       -0.1486
      9 N         139.9764  139.0409  163.5488 N.ar    1  UNL1       -0.2096
     10 C         140.6265  140.4867  168.8329 C.ar    1  UNL1        0.1807
     11 C         139.3249  140.1451  168.1705 C.ar    1  UNL1        0.0520
     12 C         139.3194  139.4825  166.8247 C.ar    1  UNL1        0.0060
     13 C         140.6155  139.1616  166.1415 C.ar    1  UNL1        0.0196
     14 C         141.9173  139.5033  166.8040 C.ar    1  UNL1        0.0060
     15 C         141.9227  140.1659  168.1497 C.ar    1  UNL1        0.0520
     16 C         141.8557  141.0808  171.0434 C.3     1  UNL1        0.3254
     17 S         140.6320  141.1493  170.1787 S.O     1  UNL1        0.0581
     18 O         139.4136  141.8803  170.6596 O.co2   1  UNL1       -0.6774
     19 N         137.9284  141.8461  161.6288 N.pl3   1  UNL1       -0.2965
     20 H         136.9521  141.8159  161.5057 H       1  UNL1        0.1537
     21 C         138.6547  143.1558  161.5447 C.ar    1  UNL1        0.0538
     22 C         138.5561  144.1417  162.6709 C.ar    1  UNL1        0.0149
     23 C         139.2825  145.4515  162.5868 C.ar    1  UNL1        0.0057
     24 C         140.1074  145.7753  161.3766 C.ar    1  UNL1        0.0520
     25 C         140.2060  144.7894  160.2504 C.ar    1  UNL1        0.1820
     26 C         139.4797  143.4797  160.3345 C.ar    1  UNL1        0.0665
     27 S         141.0309  145.1132  159.0402 S.O     1  UNL1        0.0582
     28 C         140.4176  145.8588  157.8921 C.3     1  UNL1        0.3254
     29 O         142.4690  144.6914  158.9780 O.co2   1  UNL1       -0.6774
@<TRIPOS>UNITY_ATOM_ATTR
17 1
charge 1
18 1
charge -1
27 1
charge 1
29 1
charge -1
@<TRIPOS>BOND
     1    16    17    1
     2    17    18    2
     3    17    10    1
     4    10    11   ar
     5    11    12   ar
     6    12    13   ar
     7    13     1    1
     8     1     2   ar
     9     2     3   ar
    10     3     4   ar
    11     4     5   ar
    12     5     6   ar
    13     6     7   ar
    14     7    19    1
    15    19    21    1
    16    21    22   ar
    17    22    23   ar
    18    23    24   ar
    19    24    25   ar
    20    25    27    1
    21    27    28    1
    22    27    29    2
    23    25    26   ar
    24     7     8   ar
    25     8     9   ar
    26    13    14   ar
    27    14    15   ar
    28    15    10   ar
    29     9     1   ar
    30     9     4   ar
    31    26    21   ar
    32    19    20    1
@<TRIPOS>MOLECULE
*****
 29 32 0 0 0
SMALL
GASTEIGER

@<TRIPOS>ATOM
      1 C         143.0098  139.0671  165.4085 C.ar    1  UNL1        0.1036
      2 C         143.6872  138.1323  166.3662 C.ar    1  UNL1        0.1197
      3 N         143.3711  138.5876  167.7601 N.ar    1  UNL1       -0.2234
      4 C         142.4984  139.8038  167.6638 C.ar    1  UNL1        0.1640
      5 C         141.8782  140.6796  168.7118 C.ar    1  UNL1        0.0417
      6 C         141.0347  141.8518  168.3063 C.ar    1  UNL1        0.0393
      7 C         140.8114  142.1482  166.8530 C.ar    1  UNL1        0.1525
      8 N         141.4316  141.2724  165.8050 N.ar    1  UNL1       -0.1486
      9 N         142.2751  140.1002  166.2104 N.ar    1  UNL1       -0.2096
     10 C         143.1560  138.8166  160.9178 C.ar    1  UNL1        0.1807
     11 C         144.1120  139.7104  161.6507 C.ar    1  UNL1        0.0520
     12 C         144.0633  139.7939  163.1475 C.ar    1  UNL1        0.0060
     13 C         143.0586  138.9836  163.9116 C.ar    1  UNL1        0.0196
     14 C         142.1024  138.0898  163.1787 C.ar    1  UNL1        0.0060
     15 C         142.1512  138.0063  161.6819 C.ar    1  UNL1        0.0520
     16 C         143.4268  139.9736  158.6074 C.3     1  UNL1        0.3254
     17 S         143.2047  138.7331  159.4209 S.O     1  UNL1        0.0581
     18 O         143.0314  137.4091  158.7377 O.co2   1  UNL1       -0.6774
     19 N         139.9679  143.3205  166.4476 N.pl3   1  UNL1       -0.2965
     20 H         139.8073  144.0547  167.0835 H       1  UNL1        0.1537
     21 C         139.3690  143.3740  165.0734 C.ar    1  UNL1        0.0538
     22 C         138.1923  142.5080  164.7337 C.ar    1  UNL1        0.0149
     23 C         137.5935  142.5616  163.3595 C.ar    1  UNL1        0.0057
     24 C         138.1713  143.4812  162.3249 C.ar    1  UNL1        0.0520
     25 C         139.3480  144.3472  162.6645 C.ar    1  UNL1        0.1820
     26 C         139.9469  144.2937  164.0387 C.ar    1  UNL1        0.0665
     27 S         139.9259  145.2668  161.6300 S.O     1  UNL1        0.0582
     28 C         141.1672  144.8728  160.8856 C.3     1  UNL1        0.3254
     29 O         139.2625  146.5805  161.3397 O.co2   1  UNL1       -0.6774
@<TRIPOS>UNITY_ATOM_ATTR
17 1
charge 1
18 1
charge -1
27 1
charge 1
29 1
charge -1
@<TRIPOS>BOND
     1    16    17    1
     2    17    18    2
     3    17    10    1
     4    10    11   ar
     5    11    12   ar
     6    12    13   ar
     7    13     1    1
     8     1     2   ar
     9     2     3   ar
    10     3     4   ar
    11     4     5   ar
    12     5     6   ar
    13     6     7   ar
    14     7    19    1
    15    19    21    1
    16    21    22   ar
    17    22    23   ar
    18    23    24   ar
    19    24    25   ar
    20    25    27    1
    21    27    28    1
    22    27    29    2
    23    25    26   ar
    24     7     8   ar
    25     8     9   ar
    26    13    14   ar
    27    14    15   ar
    28    15    10   ar
    29     9     1   ar
    30     9     4   ar
    31    26    21   ar
    32    19    20    1
@<TRIPOS>MOLECULE
*****
 29 32 0 0 0
SMALL
GASTEIGER

@<TRIPOS>ATOM
      1 C         139.0423  143.5507  164.1402 C.ar    1  UNL1        0.1036
      2 C         137.7450  144.2398  163.8363 C.ar    1  UNL1        0.1197
      3 N         137.9019  144.9703  162.5357 N.ar    1  UNL1       -0.2234
      4 C         139.2960  144.7327  162.0357 C.ar    1  UNL1        0.1640
      5 C         140.0147  145.2019  160.8055 C.ar    1  UNL1        0.0417
      6 C         141.4382  144.7937  160.5671 C.ar    1  UNL1        0.0393
      7 C         142.1430  143.9163  161.5587 C.ar    1  UNL1        0.1525
      8 N         141.4243  143.4471  162.7889 N.ar    1  UNL1       -0.1486
      9 N         140.0008  143.8553  163.0273 N.ar    1  UNL1       -0.2096
     10 C         139.9067  141.0147  167.7557 C.ar    1  UNL1        0.1807
     11 C         139.1964  140.4209  166.5755 C.ar    1  UNL1        0.0520
     12 C         138.9083  141.2663  165.3703 C.ar    1  UNL1        0.0060
     13 C         139.3304  142.7053  165.3453 C.ar    1  UNL1        0.0196
     14 C         140.0408  143.2992  166.5256 C.ar    1  UNL1        0.0060
     15 C         140.3289  142.4538  167.7307 C.ar    1  UNL1        0.0520
     16 C         141.5984  139.7238  169.2462 C.3     1  UNL1        0.3254
     17 S         140.1949  140.1693  168.9608 S.O     1  UNL1        0.0581
     18 O         139.0794  139.7695  169.8804 O.co2   1  UNL1       -0.6774
     19 N         143.5666  143.5081  161.3202 N.pl3   1  UNL1       -0.2965
     20 H         144.1249  144.0157  160.6878 H       1  UNL1        0.1537
     21 C         144.1396  142.3266  162.0452 C.ar    1  UNL1        0.0538
     22 C         145.2479  142.5206  163.0372 C.ar    1  UNL1        0.0149
     23 C         145.8209  141.3390  163.7622 C.ar    1  UNL1        0.0057
     24 C         145.2855  139.9635  163.4953 C.ar    1  UNL1        0.0520
     25 C         144.1772  139.7695  162.5033 C.ar    1  UNL1        0.1820
     26 C         143.6042  140.9510  161.7783 C.ar    1  UNL1        0.0665
     27 S         143.6418  138.3940  162.2364 S.O     1  UNL1        0.0582
     28 C         142.3876  137.9321  162.9174 C.3     1  UNL1        0.3254
     29 O         144.3605  137.4803  161.2884 O.co2   1  UNL1       -0.6774
@<TRIPOS>UNITY_ATOM_ATTR
17 1
charge 1
18 1
charge -1
27 1
charge 1
29 1
charge -1
@<TRIPOS>BOND
     1    16    17    1
     2    17    18    2
     3    17    10    1
     4    10    11   ar
     5    11    12   ar
     6    12    13   ar
     7    13     1    1
     8     1     2   ar
     9     2     3   ar
    10     3     4   ar
    11     4     5   ar
    12     5     6   ar
    13     6     7   ar
    14     7    19    1
    15    19    21    1
    16    21    22   ar
    17    22    23   ar
    18    23    24   ar
    19    24    25   ar
    20    25    27    1
    21    27    28    1
    22    27    29    2
    23    25    26   ar
    24     7     8   ar
    25     8     9   ar
    26    13    14   ar
    27    14    15   ar
    28    15    10   ar
    29     9     1   ar
    30     9     4   ar
    31    26    21   ar
    32    19    20    1
@<TRIPOS>MOLECULE
*****
 29 32 0 0 0
SMALL
GASTEIGER

@<TRIPOS>ATOM
      1 C         141.2192  144.3876  160.8456 C.ar    1  UNL1        0.1036
      2 C         140.3357  145.5396  160.4683 C.ar    1  UNL1        0.1197
      3 N         139.4737  145.8692  161.6508 N.ar    1  UNL1       -0.2234
      4 C         139.8245  144.9209  162.7589 C.ar    1  UNL1        0.1640
      5 C         139.3009  144.7730  164.1567 C.ar    1  UNL1        0.0417
      6 C         139.8562  143.7094  165.0569 C.ar    1  UNL1        0.0393
      7 C         140.9350  142.7937  164.5592 C.ar    1  UNL1        0.1525
      8 N         141.4586  142.9417  163.1614 N.ar    1  UNL1       -0.1486
      9 N         140.9033  144.0053  162.2612 N.ar    1  UNL1       -0.2096
     10 C         144.2804  142.4234  158.1958 C.ar    1  UNL1        0.1807
     11 C         143.1103  143.1383  157.5878 C.ar    1  UNL1        0.0520
     12 C         142.0899  143.7931  158.4711 C.ar    1  UNL1        0.0060
     13 C         142.2396  143.7329  159.9623 C.ar    1  UNL1        0.0196
     14 C         143.4098  143.0179  160.5703 C.ar    1  UNL1        0.0060
     15 C         144.4302  142.3632  159.6870 C.ar    1  UNL1        0.0520
     16 C         146.5077  142.5377  156.8630 C.3     1  UNL1        0.3254
     17 S         145.3008  141.7687  157.3125 S.O     1  UNL1        0.0581
     18 O         145.1142  140.3450  156.8787 O.co2   1  UNL1       -0.6774
     19 N         141.4903  141.7301  165.4594 N.pl3   1  UNL1       -0.2965
     20 H         142.3155  141.2549  165.2093 H       1  UNL1        0.1537
     21 C         140.7884  141.3904  166.7408 C.ar    1  UNL1        0.0538
     22 C         139.9444  140.1536  166.8286 C.ar    1  UNL1        0.0149
     23 C         139.2424  139.8139  168.1100 C.ar    1  UNL1        0.0057
     24 C         139.3846  140.7112  169.3036 C.ar    1  UNL1        0.0520
     25 C         140.2286  141.9481  169.2158 C.ar    1  UNL1        0.1820
     26 C         140.9306  142.2877  167.9345 C.ar    1  UNL1        0.0665
     27 S         140.3708  142.8453  170.4094 S.O     1  UNL1        0.0582
     28 C         140.3995  144.3343  170.2293 C.3     1  UNL1        0.3254
     29 O         140.4842  142.2538  171.7832 O.co2   1  UNL1       -0.6774
@<TRIPOS>UNITY_ATOM_ATTR
17 1
charge 1
18 1
charge -1
27 1
charge 1
29 1
charge -1
@<TRIPOS>BOND
     1    16    17    1
     2    17    18    2
     3    17    10    1
     4    10    11   ar
     5    11    12   ar
     6    12    13   ar
     7    13     1    1
     8     1     2   ar
     9     2     3   ar
    10     3     4   ar
    11     4     5   ar
    12     5     6   ar
    13     6     7   ar
    14     7    19    1
    15    19    21    1
    16    21    22   ar
    17    22    23   ar
    18    23    24   ar
    19    24    25   ar
    20    25    27    1
    21    27    28    1
    22    27    29    2
    23    25    26   ar
    24     7     8   ar
    25     8     9   ar
    26    13    14   ar
    27    14    15   ar
    28    15    10   ar
    29     9     1   ar
    30     9     4   ar
    31    26    21   ar
    32    19    20    1
@<TRIPOS>MOLECULE
*****
 29 32 0 0 0
SMALL
GASTEIGER

@<TRIPOS>ATOM
      1 C         139.4842  140.0042  166.6244 C.ar    1  UNL1        0.1036
      2 C         138.6958  139.4722  167.7842 C.ar    1  UNL1        0.1197
      3 N         139.3654  139.9267  169.0472 N.ar    1  UNL1       -0.2234
      4 C         140.5676  140.7396  168.6679 C.ar    1  UNL1        0.1640
      5 C         141.6049  141.4423  169.4925 C.ar    1  UNL1        0.0417
      6 C         142.7156  142.1930  168.8197 C.ar    1  UNL1        0.0393
      7 C         142.7890  142.2410  167.3223 C.ar    1  UNL1        0.1525
      8 N         141.7517  141.5382  166.4977 N.ar    1  UNL1       -0.1486
      9 N         140.6410  140.7875  167.1705 N.ar    1  UNL1       -0.2096
     10 C         138.5440  139.3631  162.2706 C.ar    1  UNL1        0.1807
     11 C         139.2019  138.2735  163.0642 C.ar    1  UNL1        0.0520
     12 C         139.5153  138.4872  164.5154 C.ar    1  UNL1        0.0060
     13 C         139.1708  139.7905  165.1731 C.ar    1  UNL1        0.0196
     14 C         138.5129  140.8802  164.3795 C.ar    1  UNL1        0.0060
     15 C         138.1995  140.6665  162.9282 C.ar    1  UNL1        0.0520
     16 C         139.2878  138.6257  159.8929 C.3     1  UNL1        0.3254
     17 S         138.2306  139.1494  160.8193 S.O     1  UNL1        0.0581
     18 O         136.8601  139.4594  160.2945 O.co2   1  UNL1       -0.6774
     19 N         143.8998  142.9917  166.6495 N.pl3   1  UNL1       -0.2965
     20 H         144.5514  143.4950  167.1894 H       1  UNL1        0.1537
     21 C         144.0179  142.9757  165.1543 C.ar    1  UNL1        0.0538
     22 C         145.1144  142.1911  164.4969 C.ar    1  UNL1        0.0149
     23 C         145.2324  142.1750  163.0016 C.ar    1  UNL1        0.0057
     24 C         144.2540  142.9436  162.1638 C.ar    1  UNL1        0.0520
     25 C         143.1575  143.7281  162.8212 C.ar    1  UNL1        0.1820
     26 C         143.0394  143.7442  164.3164 C.ar    1  UNL1        0.0665
     27 S         142.1790  144.4966  161.9833 S.O     1  UNL1        0.0582
     28 C         141.0191  145.1916  162.6326 C.3     1  UNL1        0.3254
     29 O         142.3605  144.5702  160.4962 O.co2   1  UNL1       -0.6774
@<TRIPOS>UNITY_ATOM_ATTR
17 1
charge 1
18 1
charge -1
27 1
charge 1
29 1
charge -1
@<TRIPOS>BOND
     1    16    17    1
     2    17    18    2
     3    17    10    1
     4    10    11   ar
     5    11    12   ar
     6    12    13   ar
     7    13     1    1
     8     1     2   ar
     9     2     3   ar
    10     3     4   ar
    11     4     5   ar
    12     5     6   ar
    13     6     7   ar
    14     7    19    1
    15    19    21    1
    16    21    22   ar
    17    22    23   ar
    18    23    24   ar
    19    24    25   ar
    20    25    27    1
    21    27    28    1
    22    27    29    2
    23    25    26   ar
    24     7     8   ar
    25     8     9   ar
    26    13    14   ar
    27    14    15   ar
    28    15    10   ar
    29     9     1   ar
    30     9     4   ar
    31    26    21   ar
    32    19    20    1
@<TRIPOS>MOLECULE
*****
 29 32 0 0 0
SMALL
GASTEIGER

@<TRIPOS>ATOM
      1 C         139.6480  143.3656  165.1234 C.ar    1  UNL1        0.1036
      2 C         138.8789  144.6483  165.0085 C.ar    1  UNL1        0.1197
      3 N         138.0774  144.5963  163.7416 N.ar    1  UNL1       -0.2234
      4 C         138.3511  143.2814  163.0736 C.ar    1  UNL1        0.1640
      5 C         137.8419  142.6785  161.7980 C.ar    1  UNL1        0.0417
      6 C         138.3033  141.3149  161.3765 C.ar    1  UNL1        0.0393
      7 C         139.2740  140.5543  162.2305 C.ar    1  UNL1        0.1525
      8 N         139.7832  141.1572  163.5060 N.ar    1  UNL1       -0.1486
      9 N         139.3218  142.5208  163.9276 N.ar    1  UNL1       -0.2096
     10 C         142.4430  142.2480  168.4684 C.ar    1  UNL1        0.1807
     11 C         142.9033  142.1552  167.0438 C.ar    1  UNL1        0.0520
     12 C         141.9716  142.5278  165.9288 C.ar    1  UNL1        0.0060
     13 C         140.5796  142.9930  166.2384 C.ar    1  UNL1        0.0196
     14 C         140.1193  143.0858  167.6631 C.ar    1  UNL1        0.0060
     15 C         141.0510  142.7132  168.7780 C.ar    1  UNL1        0.0520
     16 C         143.1234  140.6345  170.3877 C.3     1  UNL1        0.3254
     17 S         143.3747  141.8754  169.5834 S.O     1  UNL1        0.0581
     18 O         144.5576  142.7438  169.8940 O.co2   1  UNL1       -0.6774
     19 N         139.7354  139.1907  161.8088 N.pl3   1  UNL1       -0.2965
     20 H         139.0777  138.5113  161.5348 H       1  UNL1        0.1537
     21 C         141.1990  138.8621  161.8048 C.ar    1  UNL1        0.0538
     22 C         141.7877  138.0748  160.6719 C.ar    1  UNL1        0.0149
     23 C         143.2514  137.7463  160.6679 C.ar    1  UNL1        0.0057
     24 C         144.1261  138.2051  161.7967 C.ar    1  UNL1        0.0520
     25 C         143.5373  138.9924  162.9295 C.ar    1  UNL1        0.1820
     26 C         142.0738  139.3210  162.9336 C.ar    1  UNL1        0.0665
     27 S         144.4121  139.4512  164.0584 S.O     1  UNL1        0.0582
     28 C         145.3262  140.6255  163.8694 C.3     1  UNL1        0.3254
     29 O         144.3728  138.7358  165.3762 O.co2   1  UNL1       -0.6774
@<TRIPOS>UNITY_ATOM_ATTR
17 1
charge 1
18 1
charge -1
27 1
charge 1
29 1
charge -1
@<TRIPOS>BOND
     1    16    17    1
     2    17    18    2
     3    17    10    1
     4    10    11   ar
     5    11    12   ar
     6    12    13   ar
     7    13     1    1
     8     1     2   ar
     9     2     3   ar
    10     3     4   ar
    11     4     5   ar
    12     5     6   ar
    13     6     7   ar
    14     7    19    1
    15    19    21    1
    16    21    22   ar
    17    22    23   ar
    18    23    24   ar
    19    24    25   ar
    20    25    27    1
    21    27    28    1
    22    27    29    2
    23    25    26   ar
    24     7     8   ar
    25     8     9   ar
    26    13    14   ar
    27    14    15   ar
    28    15    10   ar
    29     9     1   ar
    30     9     4   ar
    31    26    21   ar
    32    19    20    1
@<TRIPOS>MOLECULE
*****
 29 32 0 0 0
SMALL
GASTEIGER

@<TRIPOS>ATOM
      1 C         139.5804  138.8580  165.2839 C.ar    1  UNL1        0.1036
      2 C         138.9433  137.5029  165.1958 C.ar    1  UNL1        0.1197
      3 N         138.6769  137.2091  163.7492 N.ar    1  UNL1       -0.2234
      4 C         139.1493  138.3827  162.9432 C.ar    1  UNL1        0.1640
      5 C         139.1432  138.6550  161.4682 C.ar    1  UNL1        0.0417
      6 C         139.6955  139.9464  160.9417 C.ar    1  UNL1        0.0393
      7 C         140.2538  140.9655  161.8902 C.ar    1  UNL1        0.1525
      8 N         140.2600  140.6932  163.3652 N.ar    1  UNL1       -0.1486
      9 N         139.7077  139.4018  163.8917 N.ar    1  UNL1       -0.2096
     10 C         140.8811  140.9287  169.0615 C.ar    1  UNL1        0.1807
     11 C         141.8378  140.7904  167.9145 C.ar    1  UNL1        0.0520
     12 C         141.4041  140.1001  166.6553 C.ar    1  UNL1        0.0060
     13 C         140.0140  139.5482  166.5431 C.ar    1  UNL1        0.0196
     14 C         139.0573  139.6866  167.6902 C.ar    1  UNL1        0.0060
     15 C         139.4909  140.3768  168.9494 C.ar    1  UNL1        0.0520
     16 C         142.4282  142.6232  170.2802 C.3     1  UNL1        0.3254
     17 S         141.3147  141.6190  170.3207 S.O     1  UNL1        0.0581
     18 O         140.6348  141.3049  171.6203 O.co2   1  UNL1       -0.6774
     19 N         140.8061  142.2570  161.3636 N.pl3   1  UNL1       -0.2965
     20 H         140.7082  142.4818  160.4101 H       1  UNL1        0.1537
     21 C         141.5075  143.2058  162.2897 C.ar    1  UNL1        0.0538
     22 C         140.9856  144.6003  162.4711 C.ar    1  UNL1        0.0149
     23 C         141.6871  145.5491  163.3973 C.ar    1  UNL1        0.0057
     24 C         142.9104  145.1034  164.1420 C.ar    1  UNL1        0.0520
     25 C         143.4324  143.7088  163.9606 C.ar    1  UNL1        0.1820
     26 C         142.7309  142.7600  163.0345 C.ar    1  UNL1        0.0665
     27 S         144.6557  143.2631  164.7054 S.O     1  UNL1        0.0582
     28 C         145.4004  142.0393  164.2604 C.3     1  UNL1        0.3254
     29 O         145.1345  144.0411  165.8951 O.co2   1  UNL1       -0.6774
@<TRIPOS>UNITY_ATOM_ATTR
17 1
charge 1
18 1
charge -1
27 1
charge 1
29 1
charge -1
@<TRIPOS>BOND
     1    16    17    1
     2    17    18    2
     3    17    10    1
     4    10    11   ar
     5    11    12   ar
     6    12    13   ar
     7    13     1    1
     8     1     2   ar
     9     2     3   ar
    10     3     4   ar
    11     4     5   ar
    12     5     6   ar
    13     6     7   ar
    14     7    19    1
    15    19    21    1
    16    21    22   ar
    17    22    23   ar
    18    23    24   ar
    19    24    25   ar
    20    25    27    1
    21    27    28    1
    22    27    29    2
    23    25    26   ar
    24     7     8   ar
    25     8     9   ar
    26    13    14   ar
    27    14    15   ar
    28    15    10   ar
    29     9     1   ar
    30     9     4   ar
    31    26    21   ar
    32    19    20    1
@<TRIPOS>MOLECULE
*****
 29 32 0 0 0
SMALL
GASTEIGER

@<TRIPOS>ATOM
      1 C         138.5807  139.9279  161.1039 C.ar    1  UNL1        0.1036
      2 C         137.4346  139.7866  160.1466 C.ar    1  UNL1        0.1197
      3 N         137.9430  140.0861  158.7676 N.ar    1  UNL1       -0.2234
      4 C         139.4033  140.4125  158.8725 C.ar    1  UNL1        0.1640
      5 C         140.4249  140.7861  157.8398 C.ar    1  UNL1        0.0417
      6 C         141.8408  141.0620  158.2511 C.ar    1  UNL1        0.0393
      7 C         142.2350  140.9642  159.6951 C.ar    1  UNL1        0.1525
      8 N         141.2133  140.5906  160.7278 N.ar    1  UNL1       -0.1486
      9 N         139.7974  140.3147  160.3165 N.ar    1  UNL1       -0.2096
     10 C         138.4008  139.3012  165.5565 C.ar    1  UNL1        0.1807
     11 C         138.1012  140.6517  164.9764 C.ar    1  UNL1        0.0520
     12 C         138.1612  140.8605  163.4922 C.ar    1  UNL1        0.0060
     13 C         138.5207  139.7190  162.5881 C.ar    1  UNL1        0.0196
     14 C         138.8203  138.3685  163.1682 C.ar    1  UNL1        0.0060
     15 C         138.7603  138.1596  164.6524 C.ar    1  UNL1        0.0520
     16 C         139.2970  139.8187  167.9395 C.3     1  UNL1        0.3254
     17 S         138.3408  139.0923  167.0407 S.O     1  UNL1        0.0581
     18 O         137.3245  138.1571  167.6259 O.co2   1  UNL1       -0.6774
     19 N         143.6509  141.2401  160.1064 N.pl3   1  UNL1       -0.2965
     20 H         144.3409  141.3958  159.4216 H       1  UNL1        0.1537
     21 C         144.0155  141.2785  161.5608 C.ar    1  UNL1        0.0538
     22 C         144.4716  140.0284  162.2531 C.ar    1  UNL1        0.0149
     23 C         144.8362  140.0669  163.7076 C.ar    1  UNL1        0.0057
     24 C         144.7447  141.3556  164.4699 C.ar    1  UNL1        0.0520
     25 C         144.2886  142.6057  163.7776 C.ar    1  UNL1        0.1820
     26 C         143.9241  142.5672  162.3232 C.ar    1  UNL1        0.0665
     27 S         144.1972  143.8943  164.5399 S.O     1  UNL1        0.0582
     28 C         143.4611  145.0622  163.9530 C.3     1  UNL1        0.3254
     29 O         144.8417  144.0151  165.8890 O.co2   1  UNL1       -0.6774
@<TRIPOS>UNITY_ATOM_ATTR
17 1
charge 1
18 1
charge -1
27 1
charge 1
29 1
charge -1
@<TRIPOS>BOND
     1    16    17    1
     2    17    18    2
     3    17    10    1
     4    10    11   ar
     5    11    12   ar
     6    12    13   ar
     7    13     1    1
     8     1     2   ar
     9     2     3   ar
    10     3     4   ar
    11     4     5   ar
    12     5     6   ar
    13     6     7   ar
    14     7    19    1
    15    19    21    1
    16    21    22   ar
    17    22    23   ar
    18    23    24   ar
    19    24    25   ar
    20    25    27    1
    21    27    28    1
    22    27    29    2
    23    25    26   ar
    24     7     8   ar
    25     8     9   ar
    26    13    14   ar
    27    14    15   ar
    28    15    10   ar
    29     9     1   ar
    30     9     4   ar
    31    26    21   ar
    32    19    20    1
