@<TRIPOS>MOLECULE
*****
 44 49 0 0 0
SMALL
GASTEIGER

@<TRIPOS>ATOM
      1 N         138.5802  142.1855  158.0526 N.am    1  UNL1       -0.2222
      2 C         138.4902  141.5266  159.3972 C.2     1  UNL1        0.3219
      3 O         137.8662  140.1935  159.6858 O.2     1  UNL1       -0.2512
      4 N         139.1339  142.4350  160.4025 N.am    1  UNL1       -0.1907
      5 C         139.6217  143.6552  159.6792 C.2     1  UNL1        0.2529
      6 O         140.3277  144.8244  160.2993 O.2     1  UNL1       -0.2724
      7 C         139.2794  143.5011  158.2269 C.3     1  UNL1        0.1391
      8 C         138.8739  143.2083  156.8127 C.3     1  UNL1        0.0449
      9 C         139.1776  144.1962  155.7257 C.3     1  UNL1        0.0746
     10 N         139.8869  145.4768  156.0527 N.3     1  UNL1       -0.2676
     11 C         140.2925  145.7696  157.4668 C.3     1  UNL1        0.0746
     12 C         139.9887  144.7817  158.5539 C.3     1  UNL1        0.0449
     13 C         136.1081  141.2735  155.0850 C.ar    1  UNL1        0.2293
     14 C         136.6264  141.8322  156.3770 C.ar    1  UNL1        0.0924
     15 C         138.0619  141.6269  156.7606 C.ar    1  UNL1        0.1453
     16 N         138.9791  140.8630  155.8521 N.ar    1  UNL1       -0.2084
     17 C         138.4608  140.3043  154.5602 C.ar    1  UNL1        0.2027
     18 N         137.0253  140.5096  154.1766 N.ar    1  UNL1       -0.1892
     19 C         133.5781  141.0162  155.6169 C.3     1  UNL1        0.2542
     20 O         134.6726  141.4788  154.7013 O.3     1  UNL1       -0.4560
     21 C         139.2665  142.1697  161.8728 C.ar    1  UNL1        0.0622
     22 C         140.5272  141.5641  162.4149 C.ar    1  UNL1        0.0154
     23 C         140.6598  141.2988  163.8853 C.ar    1  UNL1        0.0013
     24 C         139.5318  141.6391  164.8136 C.ar    1  UNL1       -0.0002
     25 C         138.2710  142.2448  164.2715 C.ar    1  UNL1        0.0013
     26 C         138.1385  142.5101  162.8011 C.ar    1  UNL1        0.0154
     27 C         139.6644  141.3738  166.2840 C.ar    1  UNL1       -0.0040
     28 C         140.3265  142.3854  167.1719 C.ar    1  UNL1       -0.0003
     29 C         140.4591  142.1201  168.6423 C.ar    1  UNL1        0.0011
     30 C         139.9296  140.8432  169.2247 C.ar    1  UNL1        0.0137
     31 C         139.2674  139.8317  168.3368 C.ar    1  UNL1       -0.0031
     32 C         139.1348  140.0969  166.8665 C.ar    1  UNL1       -0.0218
     33 C         138.4727  139.0854  165.9786 C.3     1  UNL1        0.0310
     34 C         140.0622  140.5779  170.6951 C.2     1  UNL1        0.0729
     35 O         139.4751  139.3316  171.2883 O.co2   1  UNL1       -0.5446
     36 O         140.7820  141.5590  171.5723 O.co2   1  UNL1       -0.5446
     37 C         140.1906  146.4648  154.9655 C.3     1  UNL1        0.1183
     38 C         139.6791  147.8712  155.0659 C.ar    1  UNL1        0.0712
     39 N         138.8171  148.2749  156.2252 N.ar    1  UNL1       -0.2471
     40 C         138.3056  149.6815  156.3255 C.ar    1  UNL1        0.0985
     41 C         138.6561  150.6843  155.2666 C.ar    1  UNL1        0.0203
     42 C         139.5181  150.2806  154.1073 C.ar    1  UNL1       -0.0015
     43 C         140.0296  148.8742  154.0069 C.ar    1  UNL1       -0.0069
     44 C         140.8917  148.4705  152.8476 C.3     1  UNL1        0.0323
@<TRIPOS>UNITY_ATOM_ATTR
35 1
charge -1
@<TRIPOS>BOND
     1    19    20    1
     2    20    13    1
     3    13    14   ar
     4    14    15   ar
     5    15     1    1
     6     1     2   am
     7     2     3    2
     8     2     4   am
     9     4    21    1
    10    21    22   ar
    11    22    23   ar
    12    23    24   ar
    13    24    27    1
    14    27    28   ar
    15    28    29   ar
    16    29    30   ar
    17    30    34    1
    18    34    35   ar
    19    34    36   ar
    20    30    31   ar
    21    31    32   ar
    22    32    33    1
    23    24    25   ar
    24    25    26   ar
    25     4     5   am
    26     5     6    2
    27     5     7    1
    28     7     8    1
    29     8     9    1
    30     9    10    1
    31    10    37    1
    32    37    38    1
    33    38    39   ar
    34    39    40   ar
    35    40    41   ar
    36    41    42   ar
    37    42    43   ar
    38    43    44    1
    39    10    11    1
    40    11    12    1
    41    15    16   ar
    42    16    17   ar
    43    17    18   ar
    44    18    13   ar
    45     7     1    1
    46    43    38   ar
    47    26    21   ar
    48    12     7    1
    49    32    27   ar
@<TRIPOS>MOLECULE
*****
 44 49 0 0 0
SMALL
GASTEIGER

@<TRIPOS>ATOM
      1 N         143.6714  140.9881  158.5217 N.am    1  UNL1       -0.2222
      2 C         143.4482  141.6192  159.8642 C.2     1  UNL1        0.3219
      3 O         143.7400  143.0449  160.2277 O.2     1  UNL1       -0.2512
      4 N         142.8819  140.5741  160.7792 N.am    1  UNL1       -0.1907
      5 C         142.7552  139.2972  160.0023 C.2     1  UNL1        0.2529
      6 O         142.2323  137.9934  160.5281 O.2     1  UNL1       -0.2724
      7 C         143.2431  139.5531  158.6071 C.3     1  UNL1        0.1391
      8 C         143.7589  139.9566  157.2576 C.3     1  UNL1        0.0449
      9 C         143.8096  138.9536  156.1435 C.3     1  UNL1        0.0746
     10 N         143.3445  137.5471  156.3788 N.3     1  UNL1       -0.2676
     11 C         142.8288  137.1436  157.7283 C.3     1  UNL1        0.0746
     12 C         142.7781  138.1466  158.8424 C.3     1  UNL1        0.0449
     13 C         146.2624  142.4031  155.8695 C.ar    1  UNL1        0.2293
     14 C         145.7082  141.7191  157.0840 C.ar    1  UNL1        0.0924
     15 C         144.2257  141.6721  157.3072 C.ar    1  UNL1        0.1453
     16 N         143.2973  142.3090  156.3159 N.ar    1  UNL1       -0.2084
     17 C         143.8515  142.9929  155.1014 C.ar    1  UNL1        0.2027
     18 N         145.3341  143.0400  154.8782 N.ar    1  UNL1       -0.1892
     19 C         148.3174  142.0383  154.3223 C.3     1  UNL1        0.2542
     20 O         147.7449  142.4502  155.6462 O.3     1  UNL1       -0.4560
     21 C         142.5080  140.7713  162.2183 C.ar    1  UNL1        0.0622
     22 C         143.1822  139.9617  163.2860 C.ar    1  UNL1        0.0154
     23 C         142.8083  140.1589  164.7253 C.ar    1  UNL1        0.0013
     24 C         141.7602  141.1657  165.0967 C.ar    1  UNL1       -0.0002
     25 C         141.0860  141.9753  164.0290 C.ar    1  UNL1        0.0013
     26 C         141.4600  141.7780  162.5898 C.ar    1  UNL1        0.0154
     27 C         141.3863  141.3629  166.5360 C.ar    1  UNL1       -0.0040
     28 C         142.1767  142.3060  167.3938 C.ar    1  UNL1       -0.0003
     29 C         141.8028  142.5032  168.8330 C.ar    1  UNL1        0.0011
     30 C         140.6385  141.7572  169.4143 C.ar    1  UNL1        0.0137
     31 C         139.8481  140.8141  168.5565 C.ar    1  UNL1       -0.0031
     32 C         140.2220  140.6169  167.1174 C.ar    1  UNL1       -0.0218
     33 C         139.4317  139.6737  166.2596 C.3     1  UNL1        0.0310
     34 C         140.2646  141.9544  170.8535 C.2     1  UNL1        0.0729
     35 O         139.4092  143.1199  171.2533 O.co2   1  UNL1       -0.5446
     36 O         140.7461  140.9860  171.8930 O.co2   1  UNL1       -0.5446
     37 C         143.3953  136.5440  155.2646 C.3     1  UNL1        0.1183
     38 C         143.0353  135.1119  155.5277 C.ar    1  UNL1        0.0712
     39 N         144.0116  134.2083  156.2208 N.ar    1  UNL1       -0.2471
     40 C         143.6516  132.7761  156.4839 C.ar    1  UNL1        0.0985
     41 C         142.3153  132.2475  156.0540 C.ar    1  UNL1        0.0203
     42 C         141.3390  133.1511  155.3609 C.ar    1  UNL1       -0.0015
     43 C         141.6990  134.5832  155.0978 C.ar    1  UNL1       -0.0069
     44 C         140.7226  135.4868  154.4047 C.3     1  UNL1        0.0323
@<TRIPOS>UNITY_ATOM_ATTR
35 1
charge -1
@<TRIPOS>BOND
     1    19    20    1
     2    20    13    1
     3    13    14   ar
     4    14    15   ar
     5    15     1    1
     6     1     2   am
     7     2     3    2
     8     2     4   am
     9     4    21    1
    10    21    22   ar
    11    22    23   ar
    12    23    24   ar
    13    24    27    1
    14    27    28   ar
    15    28    29   ar
    16    29    30   ar
    17    30    34    1
    18    34    35   ar
    19    34    36   ar
    20    30    31   ar
    21    31    32   ar
    22    32    33    1
    23    24    25   ar
    24    25    26   ar
    25     4     5   am
    26     5     6    2
    27     5     7    1
    28     7     8    1
    29     8     9    1
    30     9    10    1
    31    10    37    1
    32    37    38    1
    33    38    39   ar
    34    39    40   ar
    35    40    41   ar
    36    41    42   ar
    37    42    43   ar
    38    43    44    1
    39    10    11    1
    40    11    12    1
    41    15    16   ar
    42    16    17   ar
    43    17    18   ar
    44    18    13   ar
    45     7     1    1
    46    43    38   ar
    47    26    21   ar
    48    12     7    1
    49    32    27   ar
@<TRIPOS>MOLECULE
*****
 44 49 0 0 0
SMALL
GASTEIGER

@<TRIPOS>ATOM
      1 N         141.9706  138.5837  158.5981 N.am    1  UNL1       -0.2222
      2 C         141.3632  138.6153  159.9693 C.2     1  UNL1        0.3219
      3 O         140.2235  137.7659  160.4486 O.2     1  UNL1       -0.2512
      4 N         142.0956  139.6455  160.7771 N.am    1  UNL1       -0.1907
      5 C         143.1556  140.2505  159.9051 C.2     1  UNL1        0.2529
      6 O         144.1230  141.3234  160.3089 O.2     1  UNL1       -0.2724
      7 C         143.0784  139.5943  158.5584 C.3     1  UNL1        0.1391
      8 C         142.8824  138.8529  157.2693 C.3     1  UNL1        0.0449
      9 C         143.7590  139.1544  156.0900 C.3     1  UNL1        0.0746
     10 N         144.8316  140.1972  156.1999 N.3     1  UNL1       -0.2676
     11 C         145.0275  140.9386  157.4891 C.3     1  UNL1        0.0746
     12 C         144.1509  140.6372  158.6683 C.3     1  UNL1        0.0449
     13 C         141.8396  135.5195  156.0796 C.ar    1  UNL1        0.2293
     14 C         142.2653  136.4060  157.2122 C.ar    1  UNL1        0.0924
     15 C         141.5450  137.6971  157.4655 C.ar    1  UNL1        0.1453
     16 N         140.3990  138.1017  156.5862 N.ar    1  UNL1       -0.2084
     17 C         139.9733  137.2152  155.4536 C.ar    1  UNL1        0.2027
     18 N         140.6937  135.9240  155.2003 N.ar    1  UNL1       -0.1892
     19 C         141.7813  132.9614  155.6296 C.3     1  UNL1        0.2542
     20 O         142.5599  134.2284  155.8262 O.3     1  UNL1       -0.4560
     21 C         141.8169  140.0071  162.2058 C.ar    1  UNL1        0.0622
     22 C         140.8413  141.1004  162.5262 C.ar    1  UNL1        0.0154
     23 C         140.5626  141.4620  163.9550 C.ar    1  UNL1        0.0013
     24 C         141.2595  140.7303  165.0635 C.ar    1  UNL1       -0.0002
     25 C         142.2353  139.6369  164.7432 C.ar    1  UNL1        0.0013
     26 C         142.5139  139.2754  163.3143 C.ar    1  UNL1        0.0154
     27 C         140.9808  141.0919  166.4924 C.ar    1  UNL1       -0.0040
     28 C         141.7932  142.1560  167.1689 C.ar    1  UNL1       -0.0003
     29 C         141.5145  142.5177  168.5977 C.ar    1  UNL1        0.0011
     30 C         140.4234  141.8150  169.3500 C.ar    1  UNL1        0.0137
     31 C         139.6111  140.7509  168.6735 C.ar    1  UNL1       -0.0031
     32 C         139.8897  140.3893  167.2447 C.ar    1  UNL1       -0.0218
     33 C         139.0774  139.3252  166.5682 C.3     1  UNL1        0.0310
     34 C         140.1447  142.1767  170.7788 C.2     1  UNL1        0.0729
     35 O         139.2957  143.3713  171.0983 O.co2   1  UNL1       -0.5446
     36 O         140.7151  141.3436  171.8883 O.co2   1  UNL1       -0.5446
     37 C         145.7082  140.4987  155.0206 C.3     1  UNL1        0.1183
     38 C         145.8580  141.9114  154.5391 C.ar    1  UNL1        0.0712
     39 N         144.7011  142.6078  153.8859 N.ar    1  UNL1       -0.2471
     40 C         144.8510  144.0205  153.4044 C.ar    1  UNL1        0.0985
     41 C         146.1577  144.7368  153.5761 C.ar    1  UNL1        0.0203
     42 C         147.3146  144.0404  154.2293 C.ar    1  UNL1       -0.0015
     43 C         147.1647  142.6277  154.7108 C.ar    1  UNL1       -0.0069
     44 C         148.3216  141.9313  155.3639 C.3     1  UNL1        0.0323
@<TRIPOS>UNITY_ATOM_ATTR
35 1
charge -1
@<TRIPOS>BOND
     1    19    20    1
     2    20    13    1
     3    13    14   ar
     4    14    15   ar
     5    15     1    1
     6     1     2   am
     7     2     3    2
     8     2     4   am
     9     4    21    1
    10    21    22   ar
    11    22    23   ar
    12    23    24   ar
    13    24    27    1
    14    27    28   ar
    15    28    29   ar
    16    29    30   ar
    17    30    34    1
    18    34    35   ar
    19    34    36   ar
    20    30    31   ar
    21    31    32   ar
    22    32    33    1
    23    24    25   ar
    24    25    26   ar
    25     4     5   am
    26     5     6    2
    27     5     7    1
    28     7     8    1
    29     8     9    1
    30     9    10    1
    31    10    37    1
    32    37    38    1
    33    38    39   ar
    34    39    40   ar
    35    40    41   ar
    36    41    42   ar
    37    42    43   ar
    38    43    44    1
    39    10    11    1
    40    11    12    1
    41    15    16   ar
    42    16    17   ar
    43    17    18   ar
    44    18    13   ar
    45     7     1    1
    46    43    38   ar
    47    26    21   ar
    48    12     7    1
    49    32    27   ar
@<TRIPOS>MOLECULE
*****
 44 49 0 0 0
SMALL
GASTEIGER

@<TRIPOS>ATOM
      1 N         143.7210  140.9691  158.5313 N.am    1  UNL1       -0.2222
      2 C         143.5000  141.5988  159.8748 C.2     1  UNL1        0.3219
      3 O         143.8169  143.0170  160.2467 O.2     1  UNL1       -0.2512
      4 N         142.9063  140.5613  160.7810 N.am    1  UNL1       -0.1907
      5 C         142.7604  139.2904  159.9977 C.2     1  UNL1        0.2529
      6 O         142.2081  137.9949  160.5139 O.2     1  UNL1       -0.2724
      7 C         143.2639  139.5424  158.6073 C.3     1  UNL1        0.1391
      8 C         143.7977  139.9414  157.2635 C.3     1  UNL1        0.0449
      9 C         143.8372  138.9422  156.1454 C.3     1  UNL1        0.0746
     10 N         143.3429  137.5441  156.3712 N.3     1  UNL1       -0.2676
     11 C         142.8090  137.1452  157.7150 C.3     1  UNL1        0.0746
     12 C         142.7695  138.1444  158.8330 C.3     1  UNL1        0.0449
     13 C         143.9808  143.0956  155.1907 C.ar    1  UNL1        0.2293
     14 C         143.4040  142.4177  156.3980 C.ar    1  UNL1        0.0924
     15 C         144.2977  141.6471  157.3240 C.ar    1  UNL1        0.1453
     16 N         145.7682  141.5545  157.0427 N.ar    1  UNL1       -0.2084
     17 C         146.3450  142.2324  155.8354 C.ar    1  UNL1        0.2027
     18 N         145.4513  143.0030  154.9093 N.ar    1  UNL1       -0.1892
     19 C         142.3321  145.0592  154.7713 C.3     1  UNL1        0.2542
     20 O         143.0872  143.8662  154.2646 O.3     1  UNL1       -0.4560
     21 C         142.5255  140.7597  162.2181 C.ar    1  UNL1        0.0622
     22 C         143.1966  139.9533  163.2901 C.ar    1  UNL1        0.0154
     23 C         142.8157  140.1518  164.7273 C.ar    1  UNL1        0.0013
     24 C         141.7637  141.1568  165.0925 C.ar    1  UNL1       -0.0002
     25 C         141.0925  141.9633  164.0205 C.ar    1  UNL1        0.0013
     26 C         141.4735  141.7647  162.5833 C.ar    1  UNL1        0.0154
     27 C         141.3828  141.3553  166.5298 C.ar    1  UNL1       -0.0040
     28 C         142.1657  142.3032  167.3891 C.ar    1  UNL1       -0.0003
     29 C         141.7848  142.5017  168.8263 C.ar    1  UNL1        0.0011
     30 C         140.6210  141.7522  169.4041 C.ar    1  UNL1        0.0137
     31 C         139.8381  140.8043  168.5447 C.ar    1  UNL1       -0.0031
     32 C         140.2189  140.6058  167.1076 C.ar    1  UNL1       -0.0218
     33 C         139.4360  139.6579  166.2483 C.3     1  UNL1        0.0310
     34 C         140.2401  141.9507  170.8413 C.2     1  UNL1        0.0729
     35 O         139.4161  143.1384  171.2416 O.co2   1  UNL1       -0.5446
     36 O         140.6833  140.9614  171.8782 O.co2   1  UNL1       -0.5446
     37 C         143.3824  136.5450  155.2530 C.3     1  UNL1        0.1183
     38 C         143.0233  135.1123  155.5145 C.ar    1  UNL1        0.0712
     39 N         143.9630  134.2319  156.2838 N.ar    1  UNL1       -0.2471
     40 C         143.6039  132.7991  156.5452 C.ar    1  UNL1        0.0985
     41 C         142.3051  132.2468  156.0373 C.ar    1  UNL1        0.0203
     42 C         141.3654  133.1271  155.2680 C.ar    1  UNL1       -0.0015
     43 C         141.7244  134.5598  155.0065 C.ar    1  UNL1       -0.0069
     44 C         140.7847  135.4402  154.2372 C.3     1  UNL1        0.0323
@<TRIPOS>UNITY_ATOM_ATTR
35 1
charge -1
@<TRIPOS>BOND
     1    19    20    1
     2    20    13    1
     3    13    14   ar
     4    14    15   ar
     5    15     1    1
     6     1     2   am
     7     2     3    2
     8     2     4   am
     9     4    21    1
    10    21    22   ar
    11    22    23   ar
    12    23    24   ar
    13    24    27    1
    14    27    28   ar
    15    28    29   ar
    16    29    30   ar
    17    30    34    1
    18    34    35   ar
    19    34    36   ar
    20    30    31   ar
    21    31    32   ar
    22    32    33    1
    23    24    25   ar
    24    25    26   ar
    25     4     5   am
    26     5     6    2
    27     5     7    1
    28     7     8    1
    29     8     9    1
    30     9    10    1
    31    10    37    1
    32    37    38    1
    33    38    39   ar
    34    39    40   ar
    35    40    41   ar
    36    41    42   ar
    37    42    43   ar
    38    43    44    1
    39    10    11    1
    40    11    12    1
    41    15    16   ar
    42    16    17   ar
    43    17    18   ar
    44    18    13   ar
    45     7     1    1
    46    43    38   ar
    47    26    21   ar
    48    12     7    1
    49    32    27   ar
@<TRIPOS>MOLECULE
*****
 44 49 0 0 0
SMALL
GASTEIGER

@<TRIPOS>ATOM
      1 N         141.9496  138.5184  158.6748 N.am    1  UNL1       -0.2222
      2 C         141.3496  138.5590  160.0491 C.2     1  UNL1        0.3219
      3 O         140.2274  137.6973  160.5470 O.2     1  UNL1       -0.2512
      4 N         142.0690  139.6128  160.8379 N.am    1  UNL1       -0.1907
      5 C         143.1135  140.2233  159.9513 C.2     1  UNL1        0.2529
      6 O         144.0648  141.3180  160.3341 O.2     1  UNL1       -0.2724
      7 C         143.0397  139.5470  158.6143 C.3     1  UNL1        0.1391
      8 C         142.8490  138.7843  157.3369 C.3     1  UNL1        0.0449
      9 C         143.7136  139.0840  156.1483 C.3     1  UNL1        0.0746
     10 N         144.7688  140.1463  156.2372 N.3     1  UNL1       -0.2676
     11 C         144.9595  140.9090  157.5146 C.3     1  UNL1        0.0746
     12 C         144.0950  140.6093  158.7032 C.3     1  UNL1        0.0449
     13 C         139.8550  136.9786  155.6763 C.ar    1  UNL1        0.2293
     14 C         140.2720  137.8881  156.7938 C.ar    1  UNL1        0.0924
     15 C         141.5326  137.6089  157.5573 C.ar    1  UNL1        0.1453
     16 N         142.3762  136.4202  157.2032 N.ar    1  UNL1       -0.2084
     17 C         141.9593  135.5107  156.0857 C.ar    1  UNL1        0.2027
     18 N         140.6986  135.7899  155.3222 N.ar    1  UNL1       -0.1892
     19 C         138.6408  137.4207  153.4224 C.3     1  UNL1        0.2542
     20 O         138.5944  137.2577  154.9128 O.3     1  UNL1       -0.4560
     21 C         141.7925  139.9897  162.2631 C.ar    1  UNL1        0.0622
     22 C         142.4609  139.2434  163.3795 C.ar    1  UNL1        0.0154
     23 C         142.1843  139.6204  164.8048 C.ar    1  UNL1        0.0013
     24 C         141.2393  140.7435  165.1137 C.ar    1  UNL1       -0.0002
     25 C         140.5708  141.4898  163.9973 C.ar    1  UNL1        0.0013
     26 C         140.8474  141.1128  162.5720 C.ar    1  UNL1        0.0154
     27 C         140.9627  141.1205  166.5390 C.ar    1  UNL1       -0.0040
     28 C         141.7659  142.2023  167.1981 C.ar    1  UNL1       -0.0003
     29 C         141.4893  142.5793  168.6234 C.ar    1  UNL1        0.0011
     30 C         140.4094  141.8743  169.3895 C.ar    1  UNL1        0.0137
     31 C         139.6062  140.7924  168.7304 C.ar    1  UNL1       -0.0031
     32 C         139.8828  140.4155  167.3052 C.ar    1  UNL1       -0.0218
     33 C         139.0796  139.3336  166.6461 C.3     1  UNL1        0.0310
     34 C         140.1328  142.2512  170.8148 C.2     1  UNL1        0.0729
     35 O         140.7335  141.4510  171.9323 O.co2   1  UNL1       -0.5446
     36 O         139.2556  143.4284  171.1225 O.co2   1  UNL1       -0.5446
     37 C         145.6334  140.4459  155.0485 C.3     1  UNL1        0.1183
     38 C         145.7983  141.8608  154.5787 C.ar    1  UNL1        0.0712
     39 N         144.6401  142.5851  153.9590 N.ar    1  UNL1       -0.2471
     40 C         144.8051  144.0001  153.4891 C.ar    1  UNL1        0.0985
     41 C         146.1282  144.6907  153.6389 C.ar    1  UNL1        0.0203
     42 C         147.2863  143.9664  154.2587 C.ar    1  UNL1       -0.0015
     43 C         147.1214  142.5515  154.7285 C.ar    1  UNL1       -0.0069
     44 C         148.2796  141.8272  155.3482 C.3     1  UNL1        0.0323
@<TRIPOS>UNITY_ATOM_ATTR
35 1
charge -1
@<TRIPOS>BOND
     1    19    20    1
     2    20    13    1
     3    13    14   ar
     4    14    15   ar
     5    15     1    1
     6     1     2   am
     7     2     3    2
     8     2     4   am
     9     4    21    1
    10    21    22   ar
    11    22    23   ar
    12    23    24   ar
    13    24    27    1
    14    27    28   ar
    15    28    29   ar
    16    29    30   ar
    17    30    34    1
    18    34    35   ar
    19    34    36   ar
    20    30    31   ar
    21    31    32   ar
    22    32    33    1
    23    24    25   ar
    24    25    26   ar
    25     4     5   am
    26     5     6    2
    27     5     7    1
    28     7     8    1
    29     8     9    1
    30     9    10    1
    31    10    37    1
    32    37    38    1
    33    38    39   ar
    34    39    40   ar
    35    40    41   ar
    36    41    42   ar
    37    42    43   ar
    38    43    44    1
    39    10    11    1
    40    11    12    1
    41    15    16   ar
    42    16    17   ar
    43    17    18   ar
    44    18    13   ar
    45     7     1    1
    46    43    38   ar
    47    26    21   ar
    48    12     7    1
    49    32    27   ar
@<TRIPOS>MOLECULE
*****
 44 49 0 0 0
SMALL
GASTEIGER

@<TRIPOS>ATOM
      1 N         141.9065  138.0371  158.2604 N.am    1  UNL1       -0.2222
      2 C         142.1663  137.9820  159.7367 C.2     1  UNL1        0.3219
      3 O         143.3122  137.2814  160.4047 O.2     1  UNL1       -0.2512
      4 N         141.0791  138.7505  160.4277 N.am    1  UNL1       -0.1907
      5 C         140.1474  139.2805  159.3785 C.2     1  UNL1        0.2529
      6 O         138.9198  140.1064  159.6253 O.2     1  UNL1       -0.2724
      7 C         140.6587  138.8396  158.0390 C.3     1  UNL1        0.1391
      8 C         141.2870  138.3279  156.7767 C.3     1  UNL1        0.0449
      9 C         140.6605  138.6356  155.4490 C.3     1  UNL1        0.0746
     10 N         139.4058  139.4549  155.3836 N.3     1  UNL1       -0.2676
     11 C         138.7775  139.9666  156.6458 C.3     1  UNL1        0.0746
     12 C         139.4039  139.6590  157.9735 C.3     1  UNL1        0.0449
     13 C         143.4261  135.3072  155.8133 C.ar    1  UNL1        0.2293
     14 C         142.5857  135.9430  156.8807 C.ar    1  UNL1        0.0924
     15 C         142.7469  137.4013  157.1929 C.ar    1  UNL1        0.1453
     16 N         143.7484  138.2238  156.4376 N.ar    1  UNL1       -0.2084
     17 C         144.5888  137.5881  155.3701 C.ar    1  UNL1        0.2027
     18 N         144.4276  136.1297  155.0579 N.ar    1  UNL1       -0.1892
     19 C         141.9728  133.1538  155.8119 C.3     1  UNL1        0.2542
     20 O         143.2651  133.8490  155.5010 O.3     1  UNL1       -0.4560
     21 C         140.9469  138.9533  161.9080 C.ar    1  UNL1        0.0622
     22 C         141.0176  140.3361  162.4848 C.ar    1  UNL1        0.0154
     23 C         140.8854  140.5389  163.9652 C.ar    1  UNL1        0.0013
     24 C         140.6824  139.3589  164.8687 C.ar    1  UNL1       -0.0002
     25 C         140.6117  137.9759  164.2919 C.ar    1  UNL1        0.0013
     26 C         140.7440  137.7732  162.8115 C.ar    1  UNL1        0.0154
     27 C         140.5502  139.5617  166.3490 C.ar    1  UNL1       -0.0040
     28 C         139.2073  139.8568  166.9486 C.ar    1  UNL1       -0.0003
     29 C         139.0751  140.0596  168.4290 C.ar    1  UNL1        0.0011
     30 C         140.2859  139.9672  169.3097 C.ar    1  UNL1        0.0137
     31 C         141.6288  139.6721  168.7101 C.ar    1  UNL1       -0.0031
     32 C         141.7610  139.4693  167.2298 C.ar    1  UNL1       -0.0218
     33 C         143.1039  139.1742  166.6302 C.3     1  UNL1        0.0310
     34 C         140.1536  140.1700  170.7900 C.2     1  UNL1        0.0729
     35 O         139.4332  139.1533  171.6249 O.co2   1  UNL1       -0.5446
     36 O         140.7419  141.3897  171.4354 O.co2   1  UNL1       -0.5446
     37 C         138.7793  139.7626  154.0558 C.3     1  UNL1        0.1183
     38 C         137.4070  140.3652  153.9955 C.ar    1  UNL1        0.0712
     39 N         137.2453  141.8475  153.8328 N.ar    1  UNL1       -0.2471
     40 C         135.8730  142.4502  153.7725 C.ar    1  UNL1        0.0985
     41 C         134.6624  141.5704  153.8751 C.ar    1  UNL1        0.0203
     42 C         134.8241  140.0881  154.0378 C.ar    1  UNL1       -0.0015
     43 C         136.1964  139.4855  154.0981 C.ar    1  UNL1       -0.0069
     44 C         136.3580  138.0031  154.2608 C.3     1  UNL1        0.0323
@<TRIPOS>UNITY_ATOM_ATTR
35 1
charge -1
@<TRIPOS>BOND
     1    19    20    1
     2    20    13    1
     3    13    14   ar
     4    14    15   ar
     5    15     1    1
     6     1     2   am
     7     2     3    2
     8     2     4   am
     9     4    21    1
    10    21    22   ar
    11    22    23   ar
    12    23    24   ar
    13    24    27    1
    14    27    28   ar
    15    28    29   ar
    16    29    30   ar
    17    30    34    1
    18    34    35   ar
    19    34    36   ar
    20    30    31   ar
    21    31    32   ar
    22    32    33    1
    23    24    25   ar
    24    25    26   ar
    25     4     5   am
    26     5     6    2
    27     5     7    1
    28     7     8    1
    29     8     9    1
    30     9    10    1
    31    10    37    1
    32    37    38    1
    33    38    39   ar
    34    39    40   ar
    35    40    41   ar
    36    41    42   ar
    37    42    43   ar
    38    43    44    1
    39    10    11    1
    40    11    12    1
    41    15    16   ar
    42    16    17   ar
    43    17    18   ar
    44    18    13   ar
    45     7     1    1
    46    43    38   ar
    47    26    21   ar
    48    12     7    1
    49    32    27   ar
@<TRIPOS>MOLECULE
*****
 44 49 0 0 0
SMALL
GASTEIGER

@<TRIPOS>ATOM
      1 N         138.4784  141.0084  158.6334 N.am    1  UNL1       -0.2222
      2 C         138.5102  141.6004  160.0113 C.2     1  UNL1        0.3219
      3 O         137.6114  142.6855  160.5257 O.2     1  UNL1       -0.2512
      4 N         139.5986  140.9166  160.7846 N.am    1  UNL1       -0.1907
      5 C         140.2395  139.9021  159.8846 C.2     1  UNL1        0.2529
      6 O         141.3736  138.9909  160.2498 O.2     1  UNL1       -0.2724
      7 C         139.5472  139.9589  158.5550 C.3     1  UNL1        0.1391
      8 C         138.7648  140.1287  157.2866 C.3     1  UNL1        0.0449
      9 C         139.0850  139.2842  156.0891 C.3     1  UNL1        0.0746
     10 N         140.1877  138.2698  156.1600 N.3     1  UNL1       -0.2676
     11 C         140.9702  138.0999  157.4283 C.3     1  UNL1        0.0746
     12 C         140.6499  138.9444  158.6259 C.3     1  UNL1        0.0449
     13 C         136.8320  143.0600  155.6618 C.ar    1  UNL1        0.2293
     14 C         137.7682  142.6707  156.7672 C.ar    1  UNL1        0.0924
     15 C         137.5423  141.3977  157.5279 C.ar    1  UNL1        0.1453
     16 N         136.3802  140.5141  157.1831 N.ar    1  UNL1       -0.2084
     17 C         135.4441  140.9034  156.0777 C.ar    1  UNL1        0.2027
     18 N         135.6700  142.1763  155.3170 N.ar    1  UNL1       -0.1892
     19 C         138.4549  144.8112  154.6375 C.3     1  UNL1        0.2542
     20 O         137.0578  144.3328  154.9011 O.3     1  UNL1       -0.4560
     21 C         139.9793  141.1980  162.2079 C.ar    1  UNL1        0.0622
     22 C         139.4405  140.3378  163.3124 C.ar    1  UNL1        0.0154
     23 C         139.8212  140.6192  164.7357 C.ar    1  UNL1        0.0013
     24 C         140.7406  141.7607  165.0546 C.ar    1  UNL1       -0.0002
     25 C         141.2794  142.6209  163.9501 C.ar    1  UNL1        0.0013
     26 C         140.8987  142.3394  162.5267 C.ar    1  UNL1        0.0154
     27 C         141.1213  142.0421  166.4780 C.ar    1  UNL1       -0.0040
     28 C         140.2502  142.9187  167.3280 C.ar    1  UNL1       -0.0003
     29 C         140.6308  143.2001  168.7514 C.ar    1  UNL1        0.0011
     30 C         141.8826  142.6047  169.3246 C.ar    1  UNL1        0.0137
     31 C         142.7537  141.7280  168.4745 C.ar    1  UNL1       -0.0031
     32 C         142.3731  141.4467  167.0513 C.ar    1  UNL1       -0.0218
     33 C         143.2442  140.5700  166.2012 C.3     1  UNL1        0.0310
     34 C         142.2633  142.8861  170.7480 C.2     1  UNL1        0.0729
     35 O         143.3070  143.9187  171.0551 O.co2   1  UNL1       -0.5446
     36 O         141.6002  142.1348  171.8642 O.co2   1  UNL1       -0.5446
     37 C         140.5080  137.4252  154.9623 C.3     1  UNL1        0.1183
     38 C         141.4286  136.2489  155.0987 C.ar    1  UNL1        0.0712
     39 N         140.8641  134.8748  155.3070 N.ar    1  UNL1       -0.2471
     40 C         141.7848  133.6985  155.4433 C.ar    1  UNL1        0.0985
     41 C         143.2699  133.8961  155.3714 C.ar    1  UNL1        0.0203
     42 C         143.8345  135.2702  155.1631 C.ar    1  UNL1       -0.0015
     43 C         142.9138  136.4465  155.0267 C.ar    1  UNL1       -0.0069
     44 C         143.4784  137.8205  154.8184 C.3     1  UNL1        0.0323
@<TRIPOS>UNITY_ATOM_ATTR
35 1
charge -1
@<TRIPOS>BOND
     1    19    20    1
     2    20    13    1
     3    13    14   ar
     4    14    15   ar
     5    15     1    1
     6     1     2   am
     7     2     3    2
     8     2     4   am
     9     4    21    1
    10    21    22   ar
    11    22    23   ar
    12    23    24   ar
    13    24    27    1
    14    27    28   ar
    15    28    29   ar
    16    29    30   ar
    17    30    34    1
    18    34    35   ar
    19    34    36   ar
    20    30    31   ar
    21    31    32   ar
    22    32    33    1
    23    24    25   ar
    24    25    26   ar
    25     4     5   am
    26     5     6    2
    27     5     7    1
    28     7     8    1
    29     8     9    1
    30     9    10    1
    31    10    37    1
    32    37    38    1
    33    38    39   ar
    34    39    40   ar
    35    40    41   ar
    36    41    42   ar
    37    42    43   ar
    38    43    44    1
    39    10    11    1
    40    11    12    1
    41    15    16   ar
    42    16    17   ar
    43    17    18   ar
    44    18    13   ar
    45     7     1    1
    46    43    38   ar
    47    26    21   ar
    48    12     7    1
    49    32    27   ar
@<TRIPOS>MOLECULE
*****
 44 49 0 0 0
SMALL
GASTEIGER

@<TRIPOS>ATOM
      1 N         142.1639  138.6556  158.5386 N.am    1  UNL1       -0.2222
      2 C         142.6186  138.8702  159.9519 C.2     1  UNL1        0.3219
      3 O         143.9236  138.4173  160.5367 O.2     1  UNL1       -0.2512
      4 N         141.5391  139.6172  160.6777 N.am    1  UNL1       -0.1907
      5 C         140.4173  139.8642  159.7131 C.2     1  UNL1        0.2529
      6 O         139.1346  140.5799  160.0170 O.2     1  UNL1       -0.2724
      7 C         140.8035  139.2699  158.3910 C.3     1  UNL1        0.1391
      8 C         141.3239  138.6316  157.1374 C.3     1  UNL1        0.0449
      9 C         140.4951  138.6487  155.8873 C.3     1  UNL1        0.0746
     10 N         139.1459  139.3041  155.8908 N.3     1  UNL1       -0.2676
     11 C         138.6255  139.9425  157.1444 C.3     1  UNL1        0.0746
     12 C         139.4542  139.9254  158.3945 C.3     1  UNL1        0.0449
     13 C         143.6465  135.7504  156.2778 C.ar    1  UNL1        0.2293
     14 C         142.8760  136.4555  157.3544 C.ar    1  UNL1        0.0924
     15 C         142.9344  137.9505  157.4620 C.ar    1  UNL1        0.1453
     16 N         143.7634  138.7403  156.4930 N.ar    1  UNL1       -0.2084
     17 C         144.5339  138.0353  155.4164 C.ar    1  UNL1        0.2027
     18 N         144.4755  136.5402  155.3088 N.ar    1  UNL1       -0.1892
     19 C         143.6354  133.4119  157.4096 C.3     1  UNL1        0.2542
     20 O         143.5881  134.2554  156.1702 O.3     1  UNL1       -0.4560
     21 C         141.5751  140.0424  162.1157 C.ar    1  UNL1        0.0622
     22 C         140.6491  139.4060  163.1094 C.ar    1  UNL1        0.0154
     23 C         140.6851  139.8313  164.5474 C.ar    1  UNL1        0.0013
     24 C         141.6471  140.8930  164.9917 C.ar    1  UNL1       -0.0002
     25 C         142.5731  141.5295  163.9979 C.ar    1  UNL1        0.0013
     26 C         142.5370  141.1041  162.5600 C.ar    1  UNL1        0.0154
     27 C         141.6831  141.3182  166.4297 C.ar    1  UNL1       -0.0040
     28 C         142.5938  140.6201  167.3957 C.ar    1  UNL1       -0.0003
     29 C         142.6298  141.0453  168.8337 C.ar    1  UNL1        0.0011
     30 C         141.7550  142.1688  169.3056 C.ar    1  UNL1        0.0137
     31 C         140.8443  142.8669  168.3397 C.ar    1  UNL1       -0.0031
     32 C         140.8083  142.4417  166.9017 C.ar    1  UNL1       -0.0218
     33 C         139.8976  143.1399  165.9357 C.3     1  UNL1        0.0310
     34 C         141.7910  142.5941  170.7437 C.2     1  UNL1        0.0729
     35 O         142.8419  143.5548  171.2156 O.co2   1  UNL1       -0.5446
     36 O         140.7761  142.0585  171.7098 O.co2   1  UNL1       -0.5446
     37 C         138.3171  139.3212  154.6406 C.3     1  UNL1        0.1183
     38 C         136.9366  139.9073  154.6639 C.ar    1  UNL1        0.0712
     39 N         135.7792  139.0816  155.1418 N.ar    1  UNL1       -0.2471
     40 C         134.3986  139.6678  155.1651 C.ar    1  UNL1        0.0985
     41 C         134.1756  141.0797  154.7104 C.ar    1  UNL1        0.0203
     42 C         135.3330  141.9054  154.2325 C.ar    1  UNL1       -0.0015
     43 C         136.7135  141.3193  154.2092 C.ar    1  UNL1       -0.0069
     44 C         137.8710  142.1450  153.7313 C.3     1  UNL1        0.0323
@<TRIPOS>UNITY_ATOM_ATTR
35 1
charge -1
@<TRIPOS>BOND
     1    19    20    1
     2    20    13    1
     3    13    14   ar
     4    14    15   ar
     5    15     1    1
     6     1     2   am
     7     2     3    2
     8     2     4   am
     9     4    21    1
    10    21    22   ar
    11    22    23   ar
    12    23    24   ar
    13    24    27    1
    14    27    28   ar
    15    28    29   ar
    16    29    30   ar
    17    30    34    1
    18    34    35   ar
    19    34    36   ar
    20    30    31   ar
    21    31    32   ar
    22    32    33    1
    23    24    25   ar
    24    25    26   ar
    25     4     5   am
    26     5     6    2
    27     5     7    1
    28     7     8    1
    29     8     9    1
    30     9    10    1
    31    10    37    1
    32    37    38    1
    33    38    39   ar
    34    39    40   ar
    35    40    41   ar
    36    41    42   ar
    37    42    43   ar
    38    43    44    1
    39    10    11    1
    40    11    12    1
    41    15    16   ar
    42    16    17   ar
    43    17    18   ar
    44    18    13   ar
    45     7     1    1
    46    43    38   ar
    47    26    21   ar
    48    12     7    1
    49    32    27   ar
@<TRIPOS>MOLECULE
*****
 44 49 0 0 0
SMALL
GASTEIGER

@<TRIPOS>ATOM
      1 N         139.8112  143.9759  158.3493 N.am    1  UNL1       -0.2222
      2 C         140.1731  144.0732  159.8019 C.2     1  UNL1        0.3219
      3 O         141.0391  145.1268  160.4261 O.2     1  UNL1       -0.2512
      4 N         139.5168  142.9317  160.5205 N.am    1  UNL1       -0.1907
      5 C         138.7494  142.1290  159.5122 C.2     1  UNL1        0.2529
      6 O         137.9418  140.8972  159.7958 O.2     1  UNL1       -0.2724
      7 C         138.9313  142.7743  158.1703 C.3     1  UNL1        0.1391
      8 C         139.2028  143.5263  156.9011 C.3     1  UNL1        0.0449
      9 C         138.6091  143.0531  155.6075 C.3     1  UNL1        0.0746
     10 N         137.7439  141.8280  155.5830 N.3     1  UNL1       -0.2676
     11 C         137.4724  141.0761  156.8521 C.3     1  UNL1        0.0746
     12 C         138.0661  141.5492  158.1458 C.3     1  UNL1        0.0449
     13 C         139.9035  147.0992  155.9026 C.ar    1  UNL1        0.2293
     14 C         139.4628  146.1598  156.9859 C.ar    1  UNL1        0.0924
     15 C         140.2519  144.9153  157.2661 C.ar    1  UNL1        0.1453
     16 N         141.4816  144.6101  156.4632 N.ar    1  UNL1       -0.2084
     17 C         141.9223  145.5494  155.3800 C.ar    1  UNL1        0.2027
     18 N         141.1332  146.7940  155.0997 N.ar    1  UNL1       -0.1892
     19 C         139.4427  149.1860  154.4253 C.3     1  UNL1        0.2542
     20 O         139.1145  148.3437  155.6223 O.3     1  UNL1       -0.4560
     21 C         139.6114  142.6435  161.9894 C.ar    1  UNL1        0.0622
     22 C         138.4949  143.0469  162.9063 C.ar    1  UNL1        0.0154
     23 C         138.5895  142.7587  164.3753 C.ar    1  UNL1        0.0013
     24 C         139.8006  142.0672  164.9275 C.ar    1  UNL1       -0.0002
     25 C         140.9172  141.6638  164.0106 C.ar    1  UNL1        0.0013
     26 C         140.8225  141.9520  162.5416 C.ar    1  UNL1        0.0154
     27 C         139.8952  141.7790  166.3965 C.ar    1  UNL1       -0.0040
     28 C         140.4275  142.8229  167.3329 C.ar    1  UNL1       -0.0003
     29 C         140.5221  142.5348  168.8019 C.ar    1  UNL1        0.0011
     30 C         140.0844  141.2026  169.3345 C.ar    1  UNL1        0.0137
     31 C         139.5520  140.1586  168.3981 C.ar    1  UNL1       -0.0031
     32 C         139.4574  140.4467  166.9292 C.ar    1  UNL1       -0.0218
     33 C         138.9251  139.4028  165.9929 C.3     1  UNL1        0.0310
     34 C         140.1789  140.9144  170.8035 C.2     1  UNL1        0.0729
     35 O         139.6898  139.6033  171.3436 O.co2   1  UNL1       -0.5446
     36 O         140.7627  141.9374  171.7324 O.co2   1  UNL1       -0.5446
     37 C         137.1501  141.3549  154.2892 C.3     1  UNL1        0.1183
     38 C         137.4195  139.9607  153.8059 C.ar    1  UNL1        0.0712
     39 N         138.6982  139.6505  153.0858 N.ar    1  UNL1       -0.2471
     40 C         138.9675  138.2562  152.6025 C.ar    1  UNL1        0.0985
     41 C         137.9581  137.1723  152.8392 C.ar    1  UNL1        0.0203
     42 C         136.6793  137.4825  153.5593 C.ar    1  UNL1       -0.0015
     43 C         136.4100  138.8767  154.0427 C.ar    1  UNL1       -0.0069
     44 C         135.1313  139.1870  154.7627 C.3     1  UNL1        0.0323
@<TRIPOS>UNITY_ATOM_ATTR
35 1
charge -1
@<TRIPOS>BOND
     1    19    20    1
     2    20    13    1
     3    13    14   ar
     4    14    15   ar
     5    15     1    1
     6     1     2   am
     7     2     3    2
     8     2     4   am
     9     4    21    1
    10    21    22   ar
    11    22    23   ar
    12    23    24   ar
    13    24    27    1
    14    27    28   ar
    15    28    29   ar
    16    29    30   ar
    17    30    34    1
    18    34    35   ar
    19    34    36   ar
    20    30    31   ar
    21    31    32   ar
    22    32    33    1
    23    24    25   ar
    24    25    26   ar
    25     4     5   am
    26     5     6    2
    27     5     7    1
    28     7     8    1
    29     8     9    1
    30     9    10    1
    31    10    37    1
    32    37    38    1
    33    38    39   ar
    34    39    40   ar
    35    40    41   ar
    36    41    42   ar
    37    42    43   ar
    38    43    44    1
    39    10    11    1
    40    11    12    1
    41    15    16   ar
    42    16    17   ar
    43    17    18   ar
    44    18    13   ar
    45     7     1    1
    46    43    38   ar
    47    26    21   ar
    48    12     7    1
    49    32    27   ar
