@<TRIPOS>MOLECULE
*****
 21 23 0 0 0
SMALL
GASTEIGER

@<TRIPOS>ATOM
      1 N         141.5556  140.9816  165.6123 N.pl3   1  UNL1       -0.2873
      2 C         142.9099  141.0990  164.9783 C.ar    1  UNL1        0.0475
      3 C         143.5425  142.4255  165.2786 C.ar    1  UNL1        0.0145
      4 C         144.9038  142.7470  164.7368 C.ar    1  UNL1        0.0013
      5 C         145.6325  141.7420  163.8948 C.ar    1  UNL1       -0.0002
      6 C         144.9999  140.4155  163.5945 C.ar    1  UNL1       -0.0030
      7 C         143.6386  140.0940  164.1362 C.ar    1  UNL1       -0.0082
      8 C         143.1928  138.7235  163.7203 C.3     1  UNL1        0.0323
      9 C         141.9084  138.0194  164.0435 C.3     1  UNL1        0.0323
     10 C         140.7524  138.5121  164.8627 C.ar    1  UNL1       -0.0082
     11 C         139.6589  137.4882  164.9388 C.ar    1  UNL1       -0.0030
     12 C         138.4083  137.7826  165.7131 C.ar    1  UNL1       -0.0002
     13 C         138.2513  139.1008  166.4113 C.ar    1  UNL1        0.0013
     14 C         139.3448  140.1247  166.3352 C.ar    1  UNL1        0.0145
     15 C         140.5953  139.8304  165.5609 C.ar    1  UNL1        0.0475
     16 C         141.1013  142.1732  166.4022 C.3     1  UNL1        0.0970
     17 C         141.5142  142.3240  167.8364 C.3     1  UNL1        0.0391
     18 C         140.4780  142.5655  168.8938 C.3     1  UNL1        0.0739
     19 C         141.2506  141.5217  171.1440 C.3     1  UNL1        0.0897
     20 N         140.2852  141.5674  169.9968 N.3     1  UNL1       -0.2703
     21 C         139.1272  140.6151  169.9526 C.3     1  UNL1        0.0897
@<TRIPOS>BOND
     1    19    20    1
     2    20    21    1
     3    20    18    1
     4    18    17    1
     5    17    16    1
     6    16     1    1
     7     1     2    1
     8     2     3   ar
     9     3     4   ar
    10     4     5   ar
    11     5     6   ar
    12     6     7   ar
    13     7     8    1
    14     8     9    1
    15     9    10    1
    16    10    11   ar
    17    11    12   ar
    18    12    13   ar
    19    13    14   ar
    20    14    15   ar
    21    15     1    1
    22     7     2   ar
    23    15    10   ar
@<TRIPOS>MOLECULE
*****
 21 23 0 0 0
SMALL
GASTEIGER

@<TRIPOS>ATOM
      1 N         141.4935  141.0150  165.6521 N.pl3   1  UNL1       -0.2873
      2 C         140.5542  139.8469  165.5933 C.ar    1  UNL1        0.0475
      3 C         139.2897  140.1217  166.3518 C.ar    1  UNL1        0.0145
      4 C         138.2135  139.0790  166.4185 C.ar    1  UNL1        0.0013
      5 C         138.4019  137.7614  165.7267 C.ar    1  UNL1       -0.0002
      6 C         139.6664  137.4866  164.9682 C.ar    1  UNL1       -0.0030
      7 C         140.7426  138.5293  164.9015 C.ar    1  UNL1       -0.0082
      8 C         141.9167  138.0545  164.0977 C.3     1  UNL1        0.0323
      9 C         143.1924  138.7799  163.7871 C.3     1  UNL1        0.0323
     10 C         143.6090  140.1594  164.2036 C.ar    1  UNL1       -0.0082
     11 C         144.9708  140.5031  163.6768 C.ar    1  UNL1       -0.0030
     12 C         145.5764  141.8415  163.9800 C.ar    1  UNL1       -0.0002
     13 C         144.8204  142.8362  164.8100 C.ar    1  UNL1        0.0013
     14 C         143.4586  142.4925  165.3368 C.ar    1  UNL1        0.0145
     15 C         142.8529  141.1542  165.0336 C.ar    1  UNL1        0.0475
     16 C         141.0091  142.2009  166.4325 C.3     1  UNL1        0.0970
     17 C         141.4538  142.3973  167.8516 C.3     1  UNL1        0.0391
     18 C         140.4356  142.5603  168.9409 C.3     1  UNL1        0.0739
     19 C         139.1327  140.5384  169.9228 C.3     1  UNL1        0.0897
     20 N         140.2829  141.4989  169.9897 N.3     1  UNL1       -0.2703
     21 C         141.2804  141.3979  171.1054 C.3     1  UNL1        0.0897
@<TRIPOS>BOND
     1    19    20    1
     2    20    21    1
     3    20    18    1
     4    18    17    1
     5    17    16    1
     6    16     1    1
     7     1     2    1
     8     2     3   ar
     9     3     4   ar
    10     4     5   ar
    11     5     6   ar
    12     6     7   ar
    13     7     8    1
    14     8     9    1
    15     9    10    1
    16    10    11   ar
    17    11    12   ar
    18    12    13   ar
    19    13    14   ar
    20    14    15   ar
    21    15     1    1
    22     7     2   ar
    23    15    10   ar
@<TRIPOS>MOLECULE
*****
 21 23 0 0 0
SMALL
GASTEIGER

@<TRIPOS>ATOM
      1 N         141.4486  141.0565  165.5990 N.pl3   1  UNL1       -0.2873
      2 C         142.8224  141.1867  165.0111 C.ar    1  UNL1        0.0475
      3 C         143.3981  142.5493  165.2599 C.ar    1  UNL1        0.0145
      4 C         144.7683  142.8885  164.7527 C.ar    1  UNL1        0.0013
      5 C         145.5629  141.8652  163.9967 C.ar    1  UNL1       -0.0002
      6 C         144.9872  140.5026  163.7480 C.ar    1  UNL1       -0.0030
      7 C         143.6169  140.1634  164.2551 C.ar    1  UNL1       -0.0082
      8 C         143.2339  138.7571  163.9005 C.3     1  UNL1        0.0323
      9 C         141.9617  138.0269  164.2141 C.3     1  UNL1        0.0323
     10 C         140.7584  138.5226  164.9599 C.ar    1  UNL1       -0.0082
     11 C         139.6974  137.4663  165.0522 C.ar    1  UNL1       -0.0030
     12 C         138.4079  137.7584  165.7609 C.ar    1  UNL1       -0.0002
     13 C         138.1796  139.1066  166.3772 C.ar    1  UNL1        0.0013
     14 C         139.2406  140.1629  166.2849 C.ar    1  UNL1        0.0145
     15 C         140.5300  139.8709  165.5763 C.ar    1  UNL1        0.0475
     16 C         140.9239  142.2729  166.3028 C.3     1  UNL1        0.0970
     17 C         140.0905  143.2710  165.5551 C.3     1  UNL1        0.0391
     18 C         139.8596  143.1022  164.0826 C.3     1  UNL1        0.0739
     19 C         137.7372  141.7666  163.4035 C.3     1  UNL1        0.0897
     20 N         138.4610  143.0731  163.5412 N.3     1  UNL1       -0.2703
     21 C         137.7863  144.3505  163.1377 C.3     1  UNL1        0.0897
@<TRIPOS>BOND
     1    19    20    1
     2    20    21    1
     3    20    18    1
     4    18    17    1
     5    17    16    1
     6    16     1    1
     7     1     2    1
     8     2     3   ar
     9     3     4   ar
    10     4     5   ar
    11     5     6   ar
    12     6     7   ar
    13     7     8    1
    14     8     9    1
    15     9    10    1
    16    10    11   ar
    17    11    12   ar
    18    12    13   ar
    19    13    14   ar
    20    14    15   ar
    21    15     1    1
    22     7     2   ar
    23    15    10   ar
@<TRIPOS>MOLECULE
*****
 21 23 0 0 0
SMALL
GASTEIGER

@<TRIPOS>ATOM
      1 N         141.5546  140.9876  165.6550 N.pl3   1  UNL1       -0.2873
      2 C         140.5880  139.8416  165.6048 C.ar    1  UNL1        0.0475
      3 C         139.3443  140.1388  166.3888 C.ar    1  UNL1        0.0145
      4 C         138.2460  139.1203  166.4675 C.ar    1  UNL1        0.0013
      5 C         138.3914  137.8045  165.7622 C.ar    1  UNL1       -0.0002
      6 C         139.6352  137.5072  164.9782 C.ar    1  UNL1       -0.0030
      7 C         140.7334  138.5258  164.8995 C.ar    1  UNL1       -0.0082
      8 C         141.8813  138.0310  164.0702 C.3     1  UNL1        0.0323
      9 C         143.1673  138.7298  163.7415 C.3     1  UNL1        0.0323
     10 C         143.6229  140.0960  164.1609 C.ar    1  UNL1       -0.0082
     11 C         144.9822  140.4130  163.6114 C.ar    1  UNL1       -0.0030
     12 C         145.6238  141.7348  163.9136 C.ar    1  UNL1       -0.0002
     13 C         144.9061  142.7396  164.7651 C.ar    1  UNL1        0.0013
     14 C         143.5468  142.4226  165.3146 C.ar    1  UNL1        0.0145
     15 C         142.9052  141.1009  165.0125 C.ar    1  UNL1        0.0475
     16 C         141.1119  142.1777  166.4535 C.3     1  UNL1        0.0970
     17 C         140.2555  143.2318  165.8166 C.3     1  UNL1        0.0391
     18 C         140.0973  143.2695  164.3254 C.3     1  UNL1        0.0739
     19 C         141.7000  145.2107  163.6829 C.3     1  UNL1        0.0897
     20 N         140.3621  144.5411  163.5752 N.3     1  UNL1       -0.2703
     21 C         139.2891  145.1431  162.7172 C.3     1  UNL1        0.0897
@<TRIPOS>BOND
     1    19    20    1
     2    20    21    1
     3    20    18    1
     4    18    17    1
     5    17    16    1
     6    16     1    1
     7     1     2    1
     8     2     3   ar
     9     3     4   ar
    10     4     5   ar
    11     5     6   ar
    12     6     7   ar
    13     7     8    1
    14     8     9    1
    15     9    10    1
    16    10    11   ar
    17    11    12   ar
    18    12    13   ar
    19    13    14   ar
    20    14    15   ar
    21    15     1    1
    22     7     2   ar
    23    15    10   ar
@<TRIPOS>MOLECULE
*****
 21 23 0 0 0
SMALL
GASTEIGER

@<TRIPOS>ATOM
      1 N         141.8110  139.1809  166.2405 N.pl3   1  UNL1       -0.2873
      2 C         141.4548  139.7271  167.5914 C.ar    1  UNL1        0.0475
      3 C         142.6784  140.1314  168.3591 C.ar    1  UNL1        0.0145
      4 C         142.5428  140.7043  169.7387 C.ar    1  UNL1        0.0013
      5 C         141.1837  140.8728  170.3506 C.ar    1  UNL1       -0.0002
      6 C         139.9602  140.4685  169.5829 C.ar    1  UNL1       -0.0030
      7 C         140.0957  139.8956  168.2033 C.ar    1  UNL1       -0.0082
      8 C         138.7572  139.5596  167.6155 C.3     1  UNL1        0.0323
      9 C         138.4472  138.9721  166.2706 C.3     1  UNL1        0.0323
     10 C         139.3992  138.5754  165.1814 C.ar    1  UNL1       -0.0082
     11 C         138.6712  138.0254  163.9908 C.ar    1  UNL1       -0.0030
     12 C         139.4403  137.5684  162.7867 C.ar    1  UNL1       -0.0002
     13 C         140.9373  137.6613  162.7733 C.ar    1  UNL1        0.0013
     14 C         141.6653  138.2113  163.9639 C.ar    1  UNL1        0.0145
     15 C         140.8962  138.6684  165.1679 C.ar    1  UNL1        0.0475
     16 C         143.2758  139.1422  165.9198 C.3     1  UNL1        0.0970
     17 C         143.9034  140.2613  165.1427 C.3     1  UNL1        0.0391
     18 C         144.9340  139.9612  164.0950 C.3     1  UNL1        0.0739
     19 C         144.1996  139.6946  161.6172 C.3     1  UNL1        0.0897
     20 N         144.7882  140.5305  162.7149 N.3     1  UNL1       -0.2703
     21 C         145.2309  141.9355  162.4325 C.3     1  UNL1        0.0897
@<TRIPOS>BOND
     1    19    20    1
     2    20    21    1
     3    20    18    1
     4    18    17    1
     5    17    16    1
     6    16     1    1
     7     1     2    1
     8     2     3   ar
     9     3     4   ar
    10     4     5   ar
    11     5     6   ar
    12     6     7   ar
    13     7     8    1
    14     8     9    1
    15     9    10    1
    16    10    11   ar
    17    11    12   ar
    18    12    13   ar
    19    13    14   ar
    20    14    15   ar
    21    15     1    1
    22     7     2   ar
    23    15    10   ar
@<TRIPOS>MOLECULE
*****
 21 23 0 0 0
SMALL
GASTEIGER

@<TRIPOS>ATOM
      1 N         141.3721  141.3350  164.3458 N.pl3   1  UNL1       -0.2873
      2 C         140.3170  142.4008  164.3771 C.ar    1  UNL1        0.0475
      3 C         138.9508  141.8139  164.5742 C.ar    1  UNL1        0.0145
      4 C         137.7506  142.7115  164.6348 C.ar    1  UNL1        0.0013
      5 C         137.9166  144.1960  164.4984 C.ar    1  UNL1       -0.0002
      6 C         139.2828  144.7830  164.3013 C.ar    1  UNL1       -0.0030
      7 C         140.4830  143.8854  164.2407 C.ar    1  UNL1       -0.0082
      8 C         141.7451  144.6707  164.0393 C.3     1  UNL1        0.0323
      9 C         143.1528  144.1655  163.9245 C.3     1  UNL1        0.0323
     10 C         143.6461  142.7502  163.9829 C.ar    1  UNL1       -0.0082
     11 C         145.1361  142.6822  163.8243 C.ar    1  UNL1       -0.0030
     12 C         145.8337  141.3546  163.8532 C.ar    1  UNL1       -0.0002
     13 C         145.0413  140.0949  164.0406 C.ar    1  UNL1        0.0013
     14 C         143.5512  140.1629  164.1992 C.ar    1  UNL1        0.0145
     15 C         142.8536  141.4904  164.1704 C.ar    1  UNL1        0.0475
     16 C         140.8805  139.9276  164.5119 C.3     1  UNL1        0.0970
     17 C         140.7783  139.3257  165.8821 C.3     1  UNL1        0.0391
     18 C         141.3436  140.0540  167.0653 C.3     1  UNL1        0.0739
     19 C         140.5944  142.3594  167.9998 C.3     1  UNL1        0.0897
     20 N         140.4423  140.8681  167.9455 N.3     1  UNL1       -0.2703
     21 C         139.3890  140.1911  168.7713 C.3     1  UNL1        0.0897
@<TRIPOS>BOND
     1    19    20    1
     2    20    21    1
     3    20    18    1
     4    18    17    1
     5    17    16    1
     6    16     1    1
     7     1     2    1
     8     2     3   ar
     9     3     4   ar
    10     4     5   ar
    11     5     6   ar
    12     6     7   ar
    13     7     8    1
    14     8     9    1
    15     9    10    1
    16    10    11   ar
    17    11    12   ar
    18    12    13   ar
    19    13    14   ar
    20    14    15   ar
    21    15     1    1
    22     7     2   ar
    23    15    10   ar
@<TRIPOS>MOLECULE
*****
 21 23 0 0 0
SMALL
GASTEIGER

@<TRIPOS>ATOM
      1 N         142.0329  139.2022  164.4504 N.pl3   1  UNL1       -0.2873
      2 C         140.7211  139.0785  165.1672 C.ar    1  UNL1        0.0475
      3 C         140.0353  137.7862  164.8361 C.ar    1  UNL1        0.0145
      4 C         138.7051  137.4643  165.4500 C.ar    1  UNL1        0.0013
      5 C         138.0606  138.4347  166.3950 C.ar    1  UNL1       -0.0002
      6 C         138.7464  139.7270  166.7261 C.ar    1  UNL1       -0.0030
      7 C         140.0766  140.0489  166.1122 C.ar    1  UNL1       -0.0082
      8 C         140.5849  141.3826  166.5737 C.3     1  UNL1        0.0323
      9 C         141.8630  142.0753  166.2043 C.3     1  UNL1        0.0323
     10 C         142.9487  141.6053  165.2821 C.ar    1  UNL1       -0.0082
     11 C         144.0612  142.6072  165.1899 C.ar    1  UNL1       -0.0030
     12 C         145.2494  142.3304  164.3171 C.ar    1  UNL1       -0.0002
     13 C         145.3250  141.0518  163.5366 C.ar    1  UNL1        0.0013
     14 C         144.2125  140.0499  163.6288 C.ar    1  UNL1        0.0145
     15 C         143.0243  140.3266  164.5015 C.ar    1  UNL1        0.0475
     16 C         142.4022  138.0487  163.5655 C.3     1  UNL1        0.0970
     17 C         141.8759  137.9813  162.1624 C.3     1  UNL1        0.0391
     18 C         141.2255  139.1846  161.5467 C.3     1  UNL1        0.0739
     19 C         138.8277  138.2340  161.2364 C.3     1  UNL1        0.0897
     20 N         139.7381  139.3588  161.6313 N.3     1  UNL1       -0.2703
     21 C         139.1611  140.6576  162.1107 C.3     1  UNL1        0.0897
@<TRIPOS>BOND
     1    19    20    1
     2    20    21    1
     3    20    18    1
     4    18    17    1
     5    17    16    1
     6    16     1    1
     7     1     2    1
     8     2     3   ar
     9     3     4   ar
    10     4     5   ar
    11     5     6   ar
    12     6     7   ar
    13     7     8    1
    14     8     9    1
    15     9    10    1
    16    10    11   ar
    17    11    12   ar
    18    12    13   ar
    19    13    14   ar
    20    14    15   ar
    21    15     1    1
    22     7     2   ar
    23    15    10   ar
@<TRIPOS>MOLECULE
*****
 21 23 0 0 0
SMALL
GASTEIGER

@<TRIPOS>ATOM
      1 N         140.7876  140.7886  165.1455 N.pl3   1  UNL1       -0.2873
      2 C         140.4457  140.9466  166.5975 C.ar    1  UNL1        0.0475
      3 C         141.2121  142.0750  167.2214 C.ar    1  UNL1        0.0145
      4 C         141.0166  142.4026  168.6720 C.ar    1  UNL1        0.0013
      5 C         140.0549  141.6017  169.4988 C.ar    1  UNL1       -0.0002
      6 C         139.2885  140.4733  168.8750 C.ar    1  UNL1       -0.0030
      7 C         139.4839  140.1457  167.4243 C.ar    1  UNL1       -0.0082
      8 C         138.6265  138.9891  167.0033 C.3     1  UNL1        0.0323
      9 C         138.5191  138.3477  165.6516 C.3     1  UNL1        0.0323
     10 C         139.2426  138.7045  164.3870 C.ar    1  UNL1       -0.0082
     11 C         138.8420  137.8064  163.2544 C.ar    1  UNL1       -0.0030
     12 C         139.4510  137.9946  161.8965 C.ar    1  UNL1       -0.0002
     13 C         140.4605  139.0808  161.6713 C.ar    1  UNL1        0.0013
     14 C         140.8611  139.9790  162.8039 C.ar    1  UNL1        0.0145
     15 C         140.2522  139.7909  164.1617 C.ar    1  UNL1        0.0475
     16 C         141.7986  141.7565  164.6060 C.3     1  UNL1        0.0970
     17 C         141.3921  143.1641  164.2841 C.3     1  UNL1        0.0391
     18 C         140.0685  143.4318  163.6312 C.3     1  UNL1        0.0739
     19 C         137.7589  142.5628  164.4439 C.3     1  UNL1        0.0897
     20 N         138.8385  143.6039  164.4722 N.3     1  UNL1       -0.2703
     21 C         138.6880  144.8168  165.3417 C.3     1  UNL1        0.0897
@<TRIPOS>BOND
     1    19    20    1
     2    20    21    1
     3    20    18    1
     4    18    17    1
     5    17    16    1
     6    16     1    1
     7     1     2    1
     8     2     3   ar
     9     3     4   ar
    10     4     5   ar
    11     5     6   ar
    12     6     7   ar
    13     7     8    1
    14     8     9    1
    15     9    10    1
    16    10    11   ar
    17    11    12   ar
    18    12    13   ar
    19    13    14   ar
    20    14    15   ar
    21    15     1    1
    22     7     2   ar
    23    15    10   ar
@<TRIPOS>MOLECULE
*****
 21 23 0 0 0
SMALL
GASTEIGER

@<TRIPOS>ATOM
      1 N         139.6191  142.3322  165.2633 N.pl3   1  UNL1       -0.2873
      2 C         139.9041  141.7777  166.6276 C.ar    1  UNL1        0.0475
      3 C         140.5682  142.7966  167.5055 C.ar    1  UNL1        0.0145
      4 C         140.9397  142.4438  168.9153 C.ar    1  UNL1        0.0013
      5 C         140.6470  141.0721  169.4471 C.ar    1  UNL1       -0.0002
      6 C         139.9830  140.0532  168.5691 C.ar    1  UNL1       -0.0030
      7 C         139.6115  140.4060  167.1594 C.ar    1  UNL1       -0.0082
      8 C         138.9616  139.2501  166.4582 C.3     1  UNL1        0.0323
      9 C         138.4438  139.1804  165.0521 C.3     1  UNL1        0.0323
     10 C         138.4481  140.2494  163.9999 C.ar    1  UNL1       -0.0082
     11 C         137.8300  139.7634  162.7225 C.ar    1  UNL1       -0.0030
     12 C         137.7350  140.6802  161.5390 C.ar    1  UNL1       -0.0002
     13 C         138.2580  142.0828  161.6329 C.ar    1  UNL1        0.0013
     14 C         138.8761  142.5688  162.9104 C.ar    1  UNL1        0.0145
     15 C         138.9711  141.6522  164.0938 C.ar    1  UNL1        0.0475
     16 C         140.0374  143.7551  165.0387 C.3     1  UNL1        0.0970
     17 C         141.3760  144.0566  164.4324 C.3     1  UNL1        0.0391
     18 C         141.5609  145.2893  163.5980 C.3     1  UNL1        0.0739
     19 C         141.7782  144.4397  161.1524 C.3     1  UNL1        0.0897
     20 N         141.0981  145.3054  162.1712 N.3     1  UNL1       -0.2703
     21 C         139.9554  146.1872  161.7633 C.3     1  UNL1        0.0897
@<TRIPOS>BOND
     1    19    20    1
     2    20    21    1
     3    20    18    1
     4    18    17    1
     5    17    16    1
     6    16     1    1
     7     1     2    1
     8     2     3   ar
     9     3     4   ar
    10     4     5   ar
    11     5     6   ar
    12     6     7   ar
    13     7     8    1
    14     8     9    1
    15     9    10    1
    16    10    11   ar
    17    11    12   ar
    18    12    13   ar
    19    13    14   ar
    20    14    15   ar
    21    15     1    1
    22     7     2   ar
    23    15    10   ar
