@<TRIPOS>MOLECULE
*****
 28 30 0 0 0
SMALL
GASTEIGER

@<TRIPOS>ATOM
      1 C         139.5619  142.3454  164.6488 C.3     1  UNL1        0.0991
      2 C         140.3965  144.1437  160.6090 C.ar    1  UNL1        0.1162
      3 C         140.6731  142.6901  160.8545 C.ar    1  UNL1        0.0189
      4 C         140.3949  142.0906  162.2011 C.ar    1  UNL1       -0.0024
      5 C         139.8401  142.9449  163.3022 C.ar    1  UNL1       -0.0129
      6 C         139.5635  144.3985  163.0567 C.ar    1  UNL1        0.0089
      7 C         139.8417  144.9980  161.7101 C.ar    1  UNL1        0.0744
      8 CL        139.5651  146.4517  161.4647 Cl      1  UNL1       -0.0809
      9 C         140.9528  145.3426  157.9158 C.3     1  UNL1        0.1816
     10 S         140.6746  144.7432  159.2624 S.O2    1  UNL1        0.0113
     11 O         139.3316  144.2816  158.7795 O.2     1  UNL1       -0.1685
     12 O         142.0177  145.2048  159.7454 O.2     1  UNL1       -0.1685
     13 C         140.5085  142.5866  165.7871 C.2     1  UNL1        0.2308
     14 O         141.8453  143.2169  165.5303 O.2     1  UNL1       -0.2744
     15 N         140.1184  142.1974  167.1822 N.am    1  UNL1       -0.2678
     16 H         139.2410  141.7838  167.3508 H       1  UNL1        0.1563
     17 C         141.0650  142.4386  168.3206 C.ar    1  UNL1        0.1536
     18 C         140.7121  143.4261  169.3931 C.ar    1  UNL1        0.1332
     19 N         141.6587  143.6673  170.5315 N.ar    1  UNL1       -0.2378
     20 C         142.9582  142.9210  170.5973 C.ar    1  UNL1        0.1196
     21 C         143.3111  141.9335  169.5247 C.ar    1  UNL1        0.1210
     22 N         142.3645  141.6923  168.3864 N.ar    1  UNL1       -0.2258
     23 C         138.3372  141.5049  164.8570 C.3     1  UNL1        0.0135
     24 C         138.4662  140.0196  165.0226 C.3     1  UNL1        0.0008
     25 C         139.0318  139.0657  164.0126 C.3     1  UNL1        0.0000
     26 C         138.9673  137.6840  164.5930 C.3     1  UNL1        0.0000
     27 C         138.3618  137.7840  165.9617 C.3     1  UNL1        0.0000
     28 C         138.0520  139.2275  166.2273 C.3     1  UNL1        0.0000
@<TRIPOS>BOND
     1     9    10    1
     2    10    11    2
     3    10    12    2
     4    10     2    1
     5     2     3   ar
     6     3     4   ar
     7     4     5   ar
     8     5     1    1
     9     1    23    1
    10    23    24    1
    11    24    25    1
    12    25    26    1
    13    26    27    1
    14    27    28    1
    15     1    13    1
    16    13    14    2
    17    13    15   am
    18    15    17    1
    19    17    18   ar
    20    18    19   ar
    21    19    20   ar
    22    20    21   ar
    23    21    22   ar
    24     5     6   ar
    25     6     7   ar
    26     7     8    1
    27     7     2   ar
    28    28    24    1
    29    22    17   ar
    30    15    16    1
@<TRIPOS>MOLECULE
*****
 28 30 0 0 0
SMALL
GASTEIGER

@<TRIPOS>ATOM
      1 C         139.9671  141.9064  163.8289 C.3     1  UNL1        0.0991
      2 C         142.2030  141.7306  167.7301 C.ar    1  UNL1        0.1162
      3 C         142.7123  140.9744  166.5390 C.ar    1  UNL1        0.0189
      4 C         141.9670  141.0330  165.2386 C.ar    1  UNL1       -0.0024
      5 C         140.7124  141.8478  165.1293 C.ar    1  UNL1       -0.0129
      6 C         140.2031  142.6040  166.3204 C.ar    1  UNL1        0.0089
      7 C         140.9484  142.5454  167.6208 C.ar    1  UNL1        0.0744
      8 CL        140.4390  143.3016  168.8120 Cl      1  UNL1       -0.0809
      9 C         143.6936  141.6133  170.3310 C.3     1  UNL1        0.1816
     10 S         142.9483  141.6720  169.0306 S.O2    1  UNL1        0.0113
     11 O         143.8126  142.8148  168.5867 O.2     1  UNL1       -0.1685
     12 O         142.0840  140.5291  169.4744 O.2     1  UNL1       -0.1685
     13 C         140.3548  142.9134  162.7869 C.2     1  UNL1        0.2308
     14 O         140.6816  144.3211  163.1892 O.2     1  UNL1       -0.2744
     15 N         140.4159  142.5127  161.3427 N.am    1  UNL1       -0.2678
     16 H         140.2015  141.5888  161.0787 H       1  UNL1        0.1563
     17 C         140.8037  143.5198  160.3008 C.ar    1  UNL1        0.1536
     18 C         142.1881  143.5066  159.7236 C.ar    1  UNL1        0.1332
     19 N         142.5759  144.5135  158.6816 N.ar    1  UNL1       -0.2378
     20 C         141.5792  145.5337  158.2169 C.ar    1  UNL1        0.1196
     21 C         140.1948  145.5469  158.7941 C.ar    1  UNL1        0.1210
     22 N         139.8070  144.5399  159.8361 N.ar    1  UNL1       -0.2258
     23 C         138.8341  140.9581  163.5704 C.3     1  UNL1        0.0135
     24 C         138.6839  139.7229  164.4081 C.3     1  UNL1        0.0008
     25 C         139.1473  138.3451  164.0383 C.3     1  UNL1        0.0000
     26 C         138.7937  137.4193  165.1643 C.3     1  UNL1        0.0000
     27 C         138.1118  138.2250  166.2300 C.3     1  UNL1        0.0000
     28 C         138.0438  139.6487  165.7627 C.3     1  UNL1        0.0000
@<TRIPOS>BOND
     1     9    10    1
     2    10    11    2
     3    10    12    2
     4    10     2    1
     5     2     3   ar
     6     3     4   ar
     7     4     5   ar
     8     5     1    1
     9     1    23    1
    10    23    24    1
    11    24    25    1
    12    25    26    1
    13    26    27    1
    14    27    28    1
    15     1    13    1
    16    13    14    2
    17    13    15   am
    18    15    17    1
    19    17    18   ar
    20    18    19   ar
    21    19    20   ar
    22    20    21   ar
    23    21    22   ar
    24     5     6   ar
    25     6     7   ar
    26     7     8    1
    27     7     2   ar
    28    28    24    1
    29    22    17   ar
    30    15    16    1
@<TRIPOS>MOLECULE
*****
 28 30 0 0 0
SMALL
GASTEIGER

@<TRIPOS>ATOM
      1 C         139.2787  140.0917  165.4983 C.3     1  UNL1        0.0991
      2 C         139.7724  143.6441  162.7804 C.ar    1  UNL1        0.1162
      3 C         140.8917  142.6578  162.9364 C.ar    1  UNL1        0.0189
      4 C         140.7271  141.4737  163.8423 C.ar    1  UNL1       -0.0024
      5 C         139.4432  141.2759  164.5923 C.ar    1  UNL1       -0.0129
      6 C         138.3239  142.2622  164.4363 C.ar    1  UNL1        0.0089
      7 C         138.4885  143.4463  163.5304 C.ar    1  UNL1        0.0744
      8 CL        137.3691  144.4326  163.3744 Cl      1  UNL1       -0.0809
      9 C         140.1015  146.0124  160.9685 C.3     1  UNL1        0.1816
     10 S         139.9369  144.8282  161.8744 S.O2    1  UNL1        0.0113
     11 O         140.6075  145.5835  162.9834 O.2     1  UNL1       -0.1685
     12 O         139.2663  144.0730  160.7654 O.2     1  UNL1       -0.1685
     13 C         139.5386  140.2308  166.9690 C.2     1  UNL1        0.2308
     14 O         138.7982  139.3668  167.9465 O.2     1  UNL1       -0.2744
     15 N         140.5390  141.2337  167.4623 N.am    1  UNL1       -0.2678
     16 H         141.0249  141.8008  166.8208 H       1  UNL1        0.1563
     17 C         140.7989  141.3727  168.9331 C.ar    1  UNL1        0.1536
     18 C         139.9818  142.3275  169.7522 C.ar    1  UNL1        0.1332
     19 N         140.2417  142.4665  171.2229 N.ar    1  UNL1       -0.2378
     20 C         141.3187  141.6508  171.8746 C.ar    1  UNL1        0.1196
     21 C         142.1358  140.6961  171.0556 C.ar    1  UNL1        0.1210
     22 N         141.8759  140.5571  169.5848 N.ar    1  UNL1       -0.2258
     23 C         138.8541  138.7686  164.9335 C.3     1  UNL1        0.0135
     24 C         139.1072  138.4537  163.4890 C.3     1  UNL1        0.0008
     25 C         140.4095  137.9972  162.9011 C.3     1  UNL1        0.0000
     26 C         140.2096  137.8014  161.4274 C.3     1  UNL1        0.0000
     27 C         138.7837  138.1369  161.1045 C.3     1  UNL1        0.0000
     28 C         138.1023  138.5401  162.3786 C.3     1  UNL1        0.0000
@<TRIPOS>BOND
     1     9    10    1
     2    10    11    2
     3    10    12    2
     4    10     2    1
     5     2     3   ar
     6     3     4   ar
     7     4     5   ar
     8     5     1    1
     9     1    23    1
    10    23    24    1
    11    24    25    1
    12    25    26    1
    13    26    27    1
    14    27    28    1
    15     1    13    1
    16    13    14    2
    17    13    15   am
    18    15    17    1
    19    17    18   ar
    20    18    19   ar
    21    19    20   ar
    22    20    21   ar
    23    21    22   ar
    24     5     6   ar
    25     6     7   ar
    26     7     8    1
    27     7     2   ar
    28    28    24    1
    29    22    17   ar
    30    15    16    1
@<TRIPOS>MOLECULE
*****
 28 30 0 0 0
SMALL
GASTEIGER

@<TRIPOS>ATOM
      1 C         142.2603  143.1193  163.7126 C.3     1  UNL1        0.0991
      2 C         142.2180  140.6275  167.4595 C.ar    1  UNL1        0.1162
      3 C         141.4891  140.1553  166.2365 C.ar    1  UNL1        0.0189
      4 C         141.5032  140.9860  164.9875 C.ar    1  UNL1       -0.0024
      5 C         142.2462  142.2887  164.9616 C.ar    1  UNL1       -0.0129
      6 C         142.9751  142.7608  166.1845 C.ar    1  UNL1        0.0089
      7 C         142.9610  141.9302  167.4335 C.ar    1  UNL1        0.0744
      8 CL        143.6900  142.4024  168.6565 Cl      1  UNL1       -0.0809
      9 C         142.1898  138.9662  169.9574 C.3     1  UNL1        0.1816
     10 S         142.2039  139.7969  168.7084 S.O2    1  UNL1        0.0113
     11 O         141.1387  140.6818  169.2849 O.2     1  UNL1       -0.1685
     12 O         143.2691  138.9119  168.1319 O.2     1  UNL1       -0.1685
     13 C         143.0584  142.6726  162.5238 C.2     1  UNL1        0.2308
     14 O         144.5565  142.6416  162.5948 O.2     1  UNL1       -0.2744
     15 N         142.3586  142.2568  161.2639 N.am    1  UNL1       -0.2678
     16 H         141.3754  142.2772  161.2172 H       1  UNL1        0.1563
     17 C         143.1567  141.8101  160.0750 C.ar    1  UNL1        0.1536
     18 C         143.2943  140.3478  159.7706 C.ar    1  UNL1        0.1332
     19 N         144.0924  139.9010  158.5817 N.ar    1  UNL1       -0.2378
     20 C         144.7531  140.9165  157.6973 C.ar    1  UNL1        0.1196
     21 C         144.6156  142.3789  158.0017 C.ar    1  UNL1        0.1210
     22 N         143.8174  142.8256  159.1906 N.ar    1  UNL1       -0.2258
     23 C         141.4763  144.3967  163.6525 C.3     1  UNL1        0.0135
     24 C         139.9839  144.3684  163.8003 C.3     1  UNL1        0.0008
     25 C         138.9898  144.2328  162.6852 C.3     1  UNL1        0.0000
     26 C         137.6151  144.2513  163.2849 C.3     1  UNL1        0.0000
     27 C         137.7594  144.3983  164.7707 C.3     1  UNL1        0.0000
     28 C         139.2235  144.4706  165.0893 C.3     1  UNL1        0.0000
@<TRIPOS>BOND
     1     9    10    1
     2    10    11    2
     3    10    12    2
     4    10     2    1
     5     2     3   ar
     6     3     4   ar
     7     4     5   ar
     8     5     1    1
     9     1    23    1
    10    23    24    1
    11    24    25    1
    12    25    26    1
    13    26    27    1
    14    27    28    1
    15     1    13    1
    16    13    14    2
    17    13    15   am
    18    15    17    1
    19    17    18   ar
    20    18    19   ar
    21    19    20   ar
    22    20    21   ar
    23    21    22   ar
    24     5     6   ar
    25     6     7   ar
    26     7     8    1
    27     7     2   ar
    28    28    24    1
    29    22    17   ar
    30    15    16    1
@<TRIPOS>MOLECULE
*****
 28 30 0 0 0
SMALL
GASTEIGER

@<TRIPOS>ATOM
      1 C         139.5633  139.8603  164.7080 C.3     1  UNL1        0.0991
      2 C         141.8546  139.9227  168.5804 C.ar    1  UNL1        0.1162
      3 C         142.5867  139.7915  167.2779 C.ar    1  UNL1        0.0189
      4 C         141.8229  139.7707  165.9870 C.ar    1  UNL1       -0.0024
      5 C         140.3271  139.8811  165.9988 C.ar    1  UNL1       -0.0129
      6 C         139.5950  140.0123  167.3014 C.ar    1  UNL1        0.0089
      7 C         140.3588  140.0331  168.5922 C.ar    1  UNL1        0.0744
      8 CL        139.6266  140.1643  169.8948 Cl      1  UNL1       -0.0809
      9 C         143.3821  139.9643  171.1621 C.3     1  UNL1        0.1816
     10 S         142.6184  139.9435  169.8713 S.O2    1  UNL1        0.0113
     11 O         142.6901  138.4454  169.8530 O.2     1  UNL1       -0.1685
     12 O         142.5466  141.4417  169.8896 O.2     1  UNL1       -0.1685
     13 C         140.1216  139.1380  163.5178 C.2     1  UNL1        0.2308
     14 O         139.8870  137.6652  163.3562 O.2     1  UNL1       -0.2744
     15 N         140.9145  139.8884  162.4891 N.am    1  UNL1       -0.2678
     16 H         141.0685  140.8550  162.5951 H       1  UNL1        0.1563
     17 C         141.4728  139.1661  161.2988 C.ar    1  UNL1        0.1536
     18 C         140.8372  139.3381  159.9511 C.ar    1  UNL1        0.1332
     19 N         141.3954  138.6159  158.7609 N.ar    1  UNL1       -0.2378
     20 C         142.5893  137.7214  158.9184 C.ar    1  UNL1        0.1196
     21 C         143.2249  137.5493  160.2661 C.ar    1  UNL1        0.1210
     22 N         142.6666  138.2717  161.4564 N.ar    1  UNL1       -0.2258
     23 C         138.2413  140.5617  164.6073 C.3     1  UNL1        0.0135
     24 C         138.1915  142.0245  164.2789 C.3     1  UNL1        0.0008
     25 C         138.8094  143.1301  165.0824 C.3     1  UNL1        0.0000
     26 C         138.5148  144.4274  164.3894 C.3     1  UNL1        0.0000
     27 C         137.7147  144.1235  163.1575 C.3     1  UNL1        0.0000
     28 C         137.5148  142.6384  163.0892 C.3     1  UNL1        0.0000
@<TRIPOS>BOND
     1     9    10    1
     2    10    11    2
     3    10    12    2
     4    10     2    1
     5     2     3   ar
     6     3     4   ar
     7     4     5   ar
     8     5     1    1
     9     1    23    1
    10    23    24    1
    11    24    25    1
    12    25    26    1
    13    26    27    1
    14    27    28    1
    15     1    13    1
    16    13    14    2
    17    13    15   am
    18    15    17    1
    19    17    18   ar
    20    18    19   ar
    21    19    20   ar
    22    20    21   ar
    23    21    22   ar
    24     5     6   ar
    25     6     7   ar
    26     7     8    1
    27     7     2   ar
    28    28    24    1
    29    22    17   ar
    30    15    16    1
@<TRIPOS>MOLECULE
*****
 28 30 0 0 0
SMALL
GASTEIGER

@<TRIPOS>ATOM
      1 C         142.9138  140.3120  165.1636 C.3     1  UNL1        0.0991
      2 C         141.1306  143.7605  162.8881 C.ar    1  UNL1        0.1162
      3 C         140.4750  142.4121  162.8416 C.ar    1  UNL1        0.0189
      4 C         141.0694  141.2626  163.6001 C.ar    1  UNL1       -0.0024
      5 C         142.3194  141.4615  164.4051 C.ar    1  UNL1       -0.0129
      6 C         142.9749  142.8098  164.4516 C.ar    1  UNL1        0.0089
      7 C         142.3805  143.9593  163.6931 C.ar    1  UNL1        0.0744
      8 CL        143.0361  145.3077  163.7396 Cl      1  UNL1       -0.0809
      9 C         139.9418  146.0595  161.3710 C.3     1  UNL1        0.1816
     10 S         140.5362  144.9100  162.1296 S.O2    1  UNL1        0.0113
     11 O         139.6633  145.2346  163.3055 O.2     1  UNL1       -0.1685
     12 O         141.4090  144.5854  160.9536 O.2     1  UNL1       -0.1685
     13 C         142.5602  140.1024  166.6062 C.2     1  UNL1        0.2308
     14 O         143.2171  139.0031  167.3873 O.2     1  UNL1       -0.2744
     15 N         141.5499  140.9921  167.2677 N.am    1  UNL1       -0.2678
     16 H         141.1188  141.7136  166.7551 H       1  UNL1        0.1563
     17 C         141.1964  140.7825  168.7104 C.ar    1  UNL1        0.1536
     18 C         139.8865  140.1502  169.0773 C.ar    1  UNL1        0.1332
     19 N         139.5330  139.9406  170.5199 N.ar    1  UNL1       -0.2378
     20 C         140.4893  140.3632  171.5956 C.ar    1  UNL1        0.1196
     21 C         141.7991  140.9954  171.2286 C.ar    1  UNL1        0.1210
     22 N         142.1527  141.2050  169.7859 N.ar    1  UNL1       -0.2258
     23 C         143.8617  139.3721  164.4796 C.3     1  UNL1        0.0135
     24 C         143.6775  139.0466  163.0269 C.3     1  UNL1        0.0008
     25 C         142.7457  138.0137  162.4660 C.3     1  UNL1        0.0000
     26 C         142.8851  138.0256  160.9726 C.3     1  UNL1        0.0000
     27 C         143.9031  139.0660  160.6104 C.3     1  UNL1        0.0000
     28 C         144.3929  139.6971  161.8801 C.3     1  UNL1        0.0000
@<TRIPOS>BOND
     1     9    10    1
     2    10    11    2
     3    10    12    2
     4    10     2    1
     5     2     3   ar
     6     3     4   ar
     7     4     5   ar
     8     5     1    1
     9     1    23    1
    10    23    24    1
    11    24    25    1
    12    25    26    1
    13    26    27    1
    14    27    28    1
    15     1    13    1
    16    13    14    2
    17    13    15   am
    18    15    17    1
    19    17    18   ar
    20    18    19   ar
    21    19    20   ar
    22    20    21   ar
    23    21    22   ar
    24     5     6   ar
    25     6     7   ar
    26     7     8    1
    27     7     2   ar
    28    28    24    1
    29    22    17   ar
    30    15    16    1
@<TRIPOS>MOLECULE
*****
 28 30 0 0 0
SMALL
GASTEIGER

@<TRIPOS>ATOM
      1 C         139.2679  139.9775  165.3101 C.3     1  UNL1        0.0991
      2 C         139.5122  143.8012  162.9501 C.ar    1  UNL1        0.1162
      3 C         138.2638  143.4688  163.7124 C.ar    1  UNL1        0.0189
      4 C         138.1824  142.1942  164.4990 C.ar    1  UNL1       -0.0024
      5 C         139.3493  141.2521  164.5234 C.ar    1  UNL1       -0.0129
      6 C         140.5977  141.5845  163.7612 C.ar    1  UNL1        0.0089
      7 C         140.6791  142.8591  162.9746 C.ar    1  UNL1        0.0744
      8 CL        141.9275  143.1916  162.2123 Cl      1  UNL1       -0.0809
      9 C         139.6750  146.3504  161.3769 C.3     1  UNL1        0.1816
     10 S         139.5936  145.0758  162.1635 S.O2    1  UNL1        0.0113
     11 O         140.1995  145.7682  163.3482 O.2     1  UNL1       -0.1685
     12 O         138.9876  144.3834  160.9789 O.2     1  UNL1       -0.1685
     13 C         139.7025  139.9529  166.7455 C.2     1  UNL1        0.2308
     14 O         138.8297  139.3105  167.7826 O.2     1  UNL1       -0.2744
     15 N         141.0100  140.5709  167.1439 N.am    1  UNL1       -0.2678
     16 H         141.5828  140.9926  166.4632 H       1  UNL1        0.1563
     17 C         141.4446  140.5464  168.5794 C.ar    1  UNL1        0.1536
     18 C         142.5339  139.6127  169.0173 C.ar    1  UNL1        0.1332
     19 N         142.9685  139.5881  170.4527 N.ar    1  UNL1       -0.2378
     20 C         142.3139  140.4972  171.4502 C.ar    1  UNL1        0.1196
     21 C         141.2247  141.4309  171.0123 C.ar    1  UNL1        0.1210
     22 N         140.7900  141.4554  169.5768 N.ar    1  UNL1       -0.2258
     23 C         138.7518  138.7274  164.6613 C.3     1  UNL1        0.0135
     24 C         138.8187  138.5734  163.1707 C.3     1  UNL1        0.0008
     25 C         137.8036  139.0739  162.1862 C.3     1  UNL1        0.0000
     26 C         138.2699  138.7018  160.8100 C.3     1  UNL1        0.0000
     27 C         139.5731  137.9712  160.9439 C.3     1  UNL1        0.0000
     28 C         139.9124  137.8919  162.4029 C.3     1  UNL1        0.0000
@<TRIPOS>BOND
     1     9    10    1
     2    10    11    2
     3    10    12    2
     4    10     2    1
     5     2     3   ar
     6     3     4   ar
     7     4     5   ar
     8     5     1    1
     9     1    23    1
    10    23    24    1
    11    24    25    1
    12    25    26    1
    13    26    27    1
    14    27    28    1
    15     1    13    1
    16    13    14    2
    17    13    15   am
    18    15    17    1
    19    17    18   ar
    20    18    19   ar
    21    19    20   ar
    22    20    21   ar
    23    21    22   ar
    24     5     6   ar
    25     6     7   ar
    26     7     8    1
    27     7     2   ar
    28    28    24    1
    29    22    17   ar
    30    15    16    1
@<TRIPOS>MOLECULE
*****
 28 30 0 0 0
SMALL
GASTEIGER

@<TRIPOS>ATOM
      1 C         140.6892  144.9753  160.9072 C.3     1  UNL1        0.0991
      2 C         143.3919  141.9452  162.8471 C.ar    1  UNL1        0.1162
      3 C         142.4388  141.5193  161.7701 C.ar    1  UNL1        0.0189
      4 C         141.5379  142.5293  161.1234 C.ar    1  UNL1       -0.0024
      5 C         141.5901  143.9652  161.5538 C.ar    1  UNL1       -0.0129
      6 C         142.5432  144.3912  162.6308 C.ar    1  UNL1        0.0089
      7 C         143.4442  143.3811  163.2775 C.ar    1  UNL1        0.0744
      8 CL        144.3974  143.8071  164.3546 Cl      1  UNL1       -0.0809
      9 C         145.1938  139.9251  164.1404 C.3     1  UNL1        0.1816
     10 S         144.2929  140.9351  163.4938 S.O2    1  UNL1        0.0113
     11 O         143.2348  140.6466  164.5171 O.2     1  UNL1       -0.1685
     12 O         145.3509  141.2237  162.4704 O.2     1  UNL1       -0.1685
     13 C         140.8815  145.3368  159.4642 C.2     1  UNL1        0.2308
     14 O         142.2660  145.4845  158.9060 O.2     1  UNL1       -0.2744
     15 N         139.6893  145.5506  158.5792 N.am    1  UNL1       -0.2678
     16 H         138.7807  145.4537  158.9455 H       1  UNL1        0.1563
     17 C         139.8817  145.9121  157.1362 C.ar    1  UNL1        0.1536
     18 C         140.5981  144.9689  156.2158 C.ar    1  UNL1        0.1332
     19 N         140.7904  145.3304  154.7728 N.ar    1  UNL1       -0.2378
     20 C         140.2664  146.6351  154.2501 C.ar    1  UNL1        0.1196
     21 C         139.5501  147.5783  155.1705 C.ar    1  UNL1        0.1210
     22 N         139.3577  147.2168  156.6136 N.ar    1  UNL1       -0.2258
     23 C         139.5959  145.6238  161.7035 C.3     1  UNL1        0.0135
     24 C         138.9784  144.8964  162.8609 C.3     1  UNL1        0.0008
     25 C         139.3227  145.0886  164.3081 C.3     1  UNL1        0.0000
     26 C         138.4652  144.1600  165.1159 C.3     1  UNL1        0.0000
     27 C         137.5910  143.3939  164.1679 C.3     1  UNL1        0.0000
     28 C         137.9081  143.8489  162.7741 C.3     1  UNL1        0.0000
@<TRIPOS>BOND
     1     9    10    1
     2    10    11    2
     3    10    12    2
     4    10     2    1
     5     2     3   ar
     6     3     4   ar
     7     4     5   ar
     8     5     1    1
     9     1    23    1
    10    23    24    1
    11    24    25    1
    12    25    26    1
    13    26    27    1
    14    27    28    1
    15     1    13    1
    16    13    14    2
    17    13    15   am
    18    15    17    1
    19    17    18   ar
    20    18    19   ar
    21    19    20   ar
    22    20    21   ar
    23    21    22   ar
    24     5     6   ar
    25     6     7   ar
    26     7     8    1
    27     7     2   ar
    28    28    24    1
    29    22    17   ar
    30    15    16    1
@<TRIPOS>MOLECULE
*****
 28 30 0 0 0
SMALL
GASTEIGER

@<TRIPOS>ATOM
      1 C         143.7718  140.9631  161.3752 C.3     1  UNL1        0.0991
      2 C         140.4134  139.9245  164.1845 C.ar    1  UNL1        0.1162
      3 C         140.2519  141.0500  163.2063 C.ar    1  UNL1        0.0189
      4 C         141.3714  141.3962  162.2698 C.ar    1  UNL1       -0.0024
      5 C         142.6523  140.6169  162.3116 C.ar    1  UNL1       -0.0129
      6 C         142.8138  139.4913  163.2899 C.ar    1  UNL1        0.0089
      7 C         141.6943  139.1451  164.2263 C.ar    1  UNL1        0.0744
      8 CL        141.8558  138.0195  165.2046 Cl      1  UNL1       -0.0809
      9 C         138.1744  139.2320  166.0574 C.3     1  UNL1        0.1816
     10 S         139.2939  139.5782  165.1209 S.O2    1  UNL1        0.0113
     11 O         139.8584  140.5192  166.1436 O.2     1  UNL1       -0.1685
     12 O         138.7294  138.6373  164.0982 O.2     1  UNL1       -0.1685
     13 C         143.8747  140.2794  160.0441 C.2     1  UNL1        0.2308
     14 O         144.0885  138.7961  159.9773 O.2     1  UNL1       -0.2744
     15 N         143.7639  141.0788  158.7797 N.am    1  UNL1       -0.2678
     16 H         143.6236  142.0523  158.8235 H       1  UNL1        0.1563
     17 C         143.8669  140.3950  157.4486 C.ar    1  UNL1        0.1536
     18 C         142.6511  139.7714  156.8298 C.ar    1  UNL1        0.1332
     19 N         142.7540  139.0876  155.4987 N.ar    1  UNL1       -0.2378
     20 C         144.0727  139.0274  154.7864 C.ar    1  UNL1        0.1196
     21 C         145.2885  139.6510  155.4052 C.ar    1  UNL1        0.1210
     22 N         145.1856  140.3348  156.7363 N.ar    1  UNL1       -0.2258
     23 C         144.7883  141.9931  161.7699 C.3     1  UNL1        0.0135
     24 C         144.5650  142.8389  162.9883 C.3     1  UNL1        0.0008
     25 C         144.9446  142.4779  164.3939 C.3     1  UNL1        0.0000
     26 C         144.5370  143.6101  165.2895 C.3     1  UNL1        0.0000
     27 C         143.9056  144.6708  164.4374 C.3     1  UNL1        0.0000
     28 C         143.9228  144.1943  163.0152 C.3     1  UNL1        0.0000
@<TRIPOS>BOND
     1     9    10    1
     2    10    11    2
     3    10    12    2
     4    10     2    1
     5     2     3   ar
     6     3     4   ar
     7     4     5   ar
     8     5     1    1
     9     1    23    1
    10    23    24    1
    11    24    25    1
    12    25    26    1
    13    26    27    1
    14    27    28    1
    15     1    13    1
    16    13    14    2
    17    13    15   am
    18    15    17    1
    19    17    18   ar
    20    18    19   ar
    21    19    20   ar
    22    20    21   ar
    23    21    22   ar
    24     5     6   ar
    25     6     7   ar
    26     7     8    1
    27     7     2   ar
    28    28    24    1
    29    22    17   ar
    30    15    16    1
