@<TRIPOS>MOLECULE
*****
 31 34 0 0 0
SMALL
GASTEIGER

@<TRIPOS>ATOM
      1 C         140.1480  144.8455  157.9194 C.ar    1  UNL1        0.1535
      2 C         141.1556  145.4926  158.8227 C.ar    1  UNL1        0.0377
      3 C         141.1525  145.1862  160.2910 C.ar    1  UNL1        0.0239
      4 C         140.1418  144.2327  160.8561 C.ar    1  UNL1        0.1059
      5 N         139.1342  143.5856  159.9528 N.ar    1  UNL1       -0.1467
      6 N         139.1373  143.8920  158.4845 N.ar    1  UNL1       -0.1329
      7 C         140.1387  143.9263  162.3245 C.ar    1  UNL1        0.0531
      8 C         141.3785  143.3979  162.9830 C.ar    1  UNL1        0.0046
      9 C         141.3755  143.0915  164.4514 C.ar    1  UNL1        0.0002
     10 C         142.6152  142.5630  165.1099 C.ar    1  UNL1        0.0000
     11 C         142.6121  142.2567  166.5782 C.ar    1  UNL1        0.0000
     12 C         141.3692  142.4788  167.3881 C.ar    1  UNL1        0.0000
     13 C         140.1295  143.0073  166.7296 C.ar    1  UNL1        0.0001
     14 C         140.1326  143.3136  165.2613 C.ar    1  UNL1        0.0030
     15 C         138.8928  143.8421  164.6028 C.ar    1  UNL1        0.0367
     16 C         138.8959  144.1484  163.1344 C.ar    1  UNL1        0.1351
     17 O         137.6560  144.6770  162.4759 O.3     1  UNL1       -0.5055
     18 H         136.8796  144.8157  162.9817 H       1  UNL1        0.2922
     19 C         140.4272  144.0621  155.4580 C.3     1  UNL1        0.1135
     20 N         140.1511  145.1519  156.4510 N.pl3   1  UNL1       -0.2916
     21 C         139.8780  146.5481  155.9756 C.3     1  UNL1        0.0768
     22 C         140.3400  146.9813  154.6159 C.3     1  UNL1        0.0342
     23 C         140.0669  148.3775  154.1405 C.3     1  UNL1        0.0435
     24 C         140.0466  149.5848  153.2507 C.3     1  UNL1        0.0158
     25 C         140.7950  147.8337  152.9472 C.3     1  UNL1        0.0158
     26 N         139.3317  149.3405  155.0249 N.3     1  UNL1       -0.3015
     27 C         138.8696  148.9074  156.3846 C.3     1  UNL1        0.0435
     28 C         138.2363  148.9662  157.7431 C.3     1  UNL1        0.0158
     29 C         138.3766  150.3240  156.3810 C.3     1  UNL1        0.0158
     30 C         139.1427  147.5111  156.8600 C.3     1  UNL1        0.0342
     31 H         138.5011  149.6361  154.5119 H       1  UNL1        0.1231
@<TRIPOS>BOND
     1    19    20    1
     2    20     1    1
     3     1     2   ar
     4     2     3   ar
     5     3     4   ar
     6     4     7    1
     7     7     8   ar
     8     8     9   ar
     9     9    10   ar
    10    10    11   ar
    11    11    12   ar
    12    12    13   ar
    13    13    14   ar
    14    14    15   ar
    15    15    16   ar
    16    16    17    1
    17     4     5   ar
    18     5     6   ar
    19    20    21    1
    20    21    22    1
    21    22    23    1
    22    23    24    1
    23    23    25    1
    24    23    26    1
    25    26    27    1
    26    27    28    1
    27    27    29    1
    28    27    30    1
    29     6     1   ar
    30    30    21    1
    31    16     7   ar
    32    14     9   ar
    33    17    18    1
    34    26    31    1
@<TRIPOS>MOLECULE
*****
 31 34 0 0 0
SMALL
GASTEIGER

@<TRIPOS>ATOM
      1 C         139.9628  144.8227  157.8196 C.ar    1  UNL1        0.1535
      2 C         140.9361  145.5335  158.7126 C.ar    1  UNL1        0.0377
      3 C         140.9691  145.2267  160.1805 C.ar    1  UNL1        0.0239
      4 C         140.0288  144.2093  160.7554 C.ar    1  UNL1        0.1059
      5 N         139.0555  143.4986  159.8625 N.ar    1  UNL1       -0.1467
      6 N         139.0225  143.8053  158.3946 N.ar    1  UNL1       -0.1329
      7 C         140.0619  143.9026  162.2234 C.ar    1  UNL1        0.0531
      8 C         141.3259  143.4016  162.8567 C.ar    1  UNL1        0.0046
      9 C         141.3590  143.0949  164.3247 C.ar    1  UNL1        0.0002
     10 C         142.6231  142.5939  164.9579 C.ar    1  UNL1        0.0000
     11 C         142.6561  142.2872  166.4258 C.ar    1  UNL1        0.0000
     12 C         141.4250  142.4815  167.2605 C.ar    1  UNL1        0.0000
     13 C         140.1609  142.9825  166.6272 C.ar    1  UNL1        0.0001
     14 C         140.1279  143.2892  165.1593 C.ar    1  UNL1        0.0030
     15 C         138.8637  143.7902  164.5260 C.ar    1  UNL1        0.0367
     16 C         138.8308  144.0969  163.0581 C.ar    1  UNL1        0.1351
     17 O         137.5666  144.5979  162.4248 O.3     1  UNL1       -0.5055
     18 H         136.7976  144.7193  162.9461 H       1  UNL1        0.2922
     19 C         140.0680  144.0210  155.3506 C.3     1  UNL1        0.1135
     20 N         139.9298  145.1295  156.3517 N.pl3   1  UNL1       -0.2916
     21 C         139.7585  146.5446  155.8848 C.3     1  UNL1        0.0768
     22 C         139.0516  147.5411  156.7550 C.3     1  UNL1        0.0342
     23 C         138.8804  148.9563  156.2882 C.3     1  UNL1        0.0435
     24 C         138.4741  150.4002  156.2854 C.3     1  UNL1        0.0158
     25 C         138.2036  149.0390  157.6243 C.3     1  UNL1        0.0158
     26 N         139.4160  149.3750  154.9512 N.3     1  UNL1       -0.3015
     27 C         140.1229  148.3785  154.0809 C.3     1  UNL1        0.0435
     28 C         140.8591  147.8043  152.9069 C.3     1  UNL1        0.0158
     29 C         140.2073  149.5942  153.2064 C.3     1  UNL1        0.0158
     30 C         140.2942  146.9633  154.5477 C.3     1  UNL1        0.0342
     31 H         140.0739  150.1354  155.1226 H       1  UNL1        0.1231
@<TRIPOS>BOND
     1    19    20    1
     2    20     1    1
     3     1     2   ar
     4     2     3   ar
     5     3     4   ar
     6     4     7    1
     7     7     8   ar
     8     8     9   ar
     9     9    10   ar
    10    10    11   ar
    11    11    12   ar
    12    12    13   ar
    13    13    14   ar
    14    14    15   ar
    15    15    16   ar
    16    16    17    1
    17     4     5   ar
    18     5     6   ar
    19    20    21    1
    20    21    22    1
    21    22    23    1
    22    23    24    1
    23    23    25    1
    24    23    26    1
    25    26    27    1
    26    27    28    1
    27    27    29    1
    28    27    30    1
    29     6     1   ar
    30    30    21    1
    31    16     7   ar
    32    14     9   ar
    33    17    18    1
    34    26    31    1
@<TRIPOS>MOLECULE
*****
 31 34 0 0 0
SMALL
GASTEIGER

@<TRIPOS>ATOM
      1 C         142.1377  137.9402  158.7424 C.ar    1  UNL1        0.1535
      2 C         143.0043  137.6994  159.9429 C.ar    1  UNL1        0.0377
      3 C         142.4572  137.9280  161.3207 C.ar    1  UNL1        0.0239
      4 C         141.0436  138.3974  161.4980 C.ar    1  UNL1        0.1059
      5 N         140.1771  138.6381  160.2976 N.ar    1  UNL1       -0.1467
      6 N         140.7241  138.4095  158.9198 N.ar    1  UNL1       -0.1329
      7 C         140.4965  138.6260  162.8759 C.ar    1  UNL1        0.0531
      8 C         141.3373  139.3103  163.9127 C.ar    1  UNL1        0.0046
      9 C         140.7902  139.5389  165.2906 C.ar    1  UNL1        0.0002
     10 C         141.6310  140.2231  166.3273 C.ar    1  UNL1        0.0000
     11 C         141.0839  140.4517  167.7051 C.ar    1  UNL1        0.0000
     12 C         139.6961  139.9960  168.0462 C.ar    1  UNL1        0.0000
     13 C         138.8554  139.3118  167.0095 C.ar    1  UNL1        0.0001
     14 C         139.4024  139.0832  165.6317 C.ar    1  UNL1        0.0030
     15 C         138.5617  138.3989  164.5948 C.ar    1  UNL1        0.0367
     16 C         139.1087  138.1703  163.2170 C.ar    1  UNL1        0.1351
     17 O         138.2680  137.4860  162.1802 O.3     1  UNL1       -0.5055
     18 H         137.4011  137.2013  162.3932 H       1  UNL1        0.2922
     19 C         143.3320  138.8400  156.6178 C.3     1  UNL1        0.1135
     20 N         142.6848  137.7116  157.3645 N.pl3   1  UNL1       -0.2916
     21 C         142.5846  136.3545  156.7334 C.3     1  UNL1        0.0768
     22 C         143.2951  135.1862  157.3502 C.3     1  UNL1        0.0342
     23 C         143.1949  133.8291  156.7191 C.3     1  UNL1        0.0435
     24 C         143.4011  132.3605  156.4943 C.3     1  UNL1        0.0158
     25 C         144.0772  133.5080  157.8889 C.3     1  UNL1        0.0158
     26 N         142.3842  133.6403  155.4713 N.3     1  UNL1       -0.3015
     27 C         141.6737  134.8085  154.8545 C.3     1  UNL1        0.0435
     28 C         140.8262  135.6011  153.9039 C.3     1  UNL1        0.0158
     29 C         141.2792  133.7267  153.8933 C.3     1  UNL1        0.0158
     30 C         141.7739  136.1656  155.4855 C.3     1  UNL1        0.0342
     31 H         141.6720  132.9422  155.6857 H       1  UNL1        0.1231
@<TRIPOS>BOND
     1    19    20    1
     2    20     1    1
     3     1     2   ar
     4     2     3   ar
     5     3     4   ar
     6     4     7    1
     7     7     8   ar
     8     8     9   ar
     9     9    10   ar
    10    10    11   ar
    11    11    12   ar
    12    12    13   ar
    13    13    14   ar
    14    14    15   ar
    15    15    16   ar
    16    16    17    1
    17     4     5   ar
    18     5     6   ar
    19    20    21    1
    20    21    22    1
    21    22    23    1
    22    23    24    1
    23    23    25    1
    24    23    26    1
    25    26    27    1
    26    27    28    1
    27    27    29    1
    28    27    30    1
    29     6     1   ar
    30    30    21    1
    31    16     7   ar
    32    14     9   ar
    33    17    18    1
    34    26    31    1
@<TRIPOS>MOLECULE
*****
 31 34 0 0 0
SMALL
GASTEIGER

@<TRIPOS>ATOM
      1 C         142.1198  137.9317  158.6938 C.ar    1  UNL1        0.1535
      2 C         142.9938  137.7014  159.8909 C.ar    1  UNL1        0.0377
      3 C         142.4507  137.9280  161.2706 C.ar    1  UNL1        0.0239
      4 C         141.0337  138.3849  161.4532 C.ar    1  UNL1        0.1059
      5 N         140.1598  138.6152  160.2561 N.ar    1  UNL1       -0.1467
      6 N         140.7028  138.3886  158.8764 N.ar    1  UNL1       -0.1329
      7 C         140.4907  138.6115  162.8330 C.ar    1  UNL1        0.0531
      8 C         141.3318  139.3007  163.8662 C.ar    1  UNL1        0.0046
      9 C         140.7888  139.5273  165.2461 C.ar    1  UNL1        0.0002
     10 C         141.6299  140.2165  166.2792 C.ar    1  UNL1        0.0000
     11 C         141.0868  140.4431  167.6590 C.ar    1  UNL1        0.0000
     12 C         139.7027  139.9805  168.0055 C.ar    1  UNL1        0.0000
     13 C         138.8616  139.2913  166.9723 C.ar    1  UNL1        0.0001
     14 C         139.4046  139.0647  165.5926 C.ar    1  UNL1        0.0030
     15 C         138.5635  138.3755  164.5593 C.ar    1  UNL1        0.0367
     16 C         139.1065  138.1490  163.1796 C.ar    1  UNL1        0.1351
     17 O         138.2654  137.4598  162.1463 O.3     1  UNL1       -0.5055
     18 H         137.4007  137.1708  162.3628 H       1  UNL1        0.2922
     19 C         143.3067  138.8349  156.5664 C.3     1  UNL1        0.1135
     20 N         142.6629  137.7051  157.3139 N.pl3   1  UNL1       -0.2916
     21 C         142.5620  136.3486  156.6817 C.3     1  UNL1        0.0768
     22 C         141.7614  136.1636  155.4269 C.3     1  UNL1        0.0342
     23 C         141.6605  134.8071  154.7946 C.3     1  UNL1        0.0435
     24 C         141.2695  133.7273  153.8298 C.3     1  UNL1        0.0158
     25 C         140.8249  135.6037  153.8369 C.3     1  UNL1        0.0158
     26 N         142.3603  133.6356  155.4173 N.3     1  UNL1       -0.3015
     27 C         143.1610  133.8205  156.6722 C.3     1  UNL1        0.0435
     28 C         144.0316  133.4951  157.8495 C.3     1  UNL1        0.0158
     29 C         143.3625  132.3510  156.4488 C.3     1  UNL1        0.0158
     30 C         143.2618  135.1770  157.3044 C.3     1  UNL1        0.0342
     31 H         142.9983  133.2653  154.7128 H       1  UNL1        0.1231
@<TRIPOS>BOND
     1    19    20    1
     2    20     1    1
     3     1     2   ar
     4     2     3   ar
     5     3     4   ar
     6     4     7    1
     7     7     8   ar
     8     8     9   ar
     9     9    10   ar
    10    10    11   ar
    11    11    12   ar
    12    12    13   ar
    13    13    14   ar
    14    14    15   ar
    15    15    16   ar
    16    16    17    1
    17     4     5   ar
    18     5     6   ar
    19    20    21    1
    20    21    22    1
    21    22    23    1
    22    23    24    1
    23    23    25    1
    24    23    26    1
    25    26    27    1
    26    27    28    1
    27    27    29    1
    28    27    30    1
    29     6     1   ar
    30    30    21    1
    31    16     7   ar
    32    14     9   ar
    33    17    18    1
    34    26    31    1
@<TRIPOS>MOLECULE
*****
 31 34 0 0 0
SMALL
GASTEIGER

@<TRIPOS>ATOM
      1 C         140.2179  145.4049  156.8644 C.ar    1  UNL1        0.1535
      2 C         139.6153  144.3412  157.7335 C.ar    1  UNL1        0.0377
      3 C         140.2609  143.9850  159.0397 C.ar    1  UNL1        0.0239
      4 C         141.5093  144.6925  159.4768 C.ar    1  UNL1        0.1059
      5 N         142.1119  145.7562  158.6078 N.ar    1  UNL1       -0.1467
      6 N         141.4663  146.1124  157.3016 N.ar    1  UNL1       -0.1329
      7 C         142.1549  144.3363  160.7831 C.ar    1  UNL1        0.0531
      8 C         143.2717  143.3356  160.8195 C.ar    1  UNL1        0.0046
      9 C         143.9174  142.9794  162.1257 C.ar    1  UNL1        0.0002
     10 C         145.0342  141.9788  162.1621 C.ar    1  UNL1        0.0000
     11 C         145.6798  141.6226  163.4683 C.ar    1  UNL1        0.0000
     12 C         145.2086  142.2670  164.7382 C.ar    1  UNL1        0.0000
     13 C         144.0918  143.2677  164.7019 C.ar    1  UNL1        0.0001
     14 C         143.4462  143.6239  163.3956 C.ar    1  UNL1        0.0030
     15 C         142.3293  144.6246  163.3592 C.ar    1  UNL1        0.0367
     16 C         141.6837  144.9807  162.0530 C.ar    1  UNL1        0.1351
     17 O         140.5668  145.9814  162.0166 O.3     1  UNL1       -0.5055
     18 H         140.2724  146.3840  162.8099 H       1  UNL1        0.2922
     19 C         138.9693  144.6871  154.7020 C.3     1  UNL1        0.1135
     20 N         139.5723  145.7611  155.5582 N.pl3   1  UNL1       -0.2916
     21 C         139.5296  147.1913  155.1081 C.3     1  UNL1        0.0768
     22 C         140.1288  147.5808  153.7893 C.3     1  UNL1        0.0342
     23 C         140.0862  149.0110  153.3392 C.3     1  UNL1        0.0435
     24 C         140.2912  150.2264  152.4843 C.3     1  UNL1        0.0158
     25 C         140.7993  148.3923  152.1736 C.3     1  UNL1        0.0158
     26 N         139.4442  150.0518  154.2079 N.3     1  UNL1       -0.3015
     27 C         138.8449  149.6624  155.5267 C.3     1  UNL1        0.0435
     28 C         138.1466  149.7843  156.8486 C.3     1  UNL1        0.0158
     29 C         138.5597  151.1350  155.5357 C.3     1  UNL1        0.0158
     30 C         138.8876  148.2321  155.9768 C.3     1  UNL1        0.0342
     31 H         138.6962  150.4740  153.6577 H       1  UNL1        0.1231
@<TRIPOS>BOND
     1    19    20    1
     2    20     1    1
     3     1     2   ar
     4     2     3   ar
     5     3     4   ar
     6     4     7    1
     7     7     8   ar
     8     8     9   ar
     9     9    10   ar
    10    10    11   ar
    11    11    12   ar
    12    12    13   ar
    13    13    14   ar
    14    14    15   ar
    15    15    16   ar
    16    16    17    1
    17     4     5   ar
    18     5     6   ar
    19    20    21    1
    20    21    22    1
    21    22    23    1
    22    23    24    1
    23    23    25    1
    24    23    26    1
    25    26    27    1
    26    27    28    1
    27    27    29    1
    28    27    30    1
    29     6     1   ar
    30    30    21    1
    31    16     7   ar
    32    14     9   ar
    33    17    18    1
    34    26    31    1
@<TRIPOS>MOLECULE
*****
 31 34 0 0 0
SMALL
GASTEIGER

@<TRIPOS>ATOM
      1 C         142.4074  137.7491  157.7227 C.ar    1  UNL1        0.1535
      2 C         140.9494  138.1008  157.7057 C.ar    1  UNL1        0.0377
      3 C         140.2581  138.4949  158.9772 C.ar    1  UNL1        0.0239
      4 C         141.0249  138.5372  160.2657 C.ar    1  UNL1        0.1059
      5 N         142.4829  138.1854  160.2827 N.ar    1  UNL1       -0.1467
      6 N         143.1742  137.7914  159.0112 N.ar    1  UNL1       -0.1329
      7 C         140.3335  138.9312  161.5373 C.ar    1  UNL1        0.0531
      8 C         139.9971  137.8889  162.5622 C.ar    1  UNL1        0.0046
      9 C         139.3058  138.2830  163.8338 C.ar    1  UNL1        0.0002
     10 C         138.9694  137.2407  164.8586 C.ar    1  UNL1        0.0000
     11 C         138.2781  137.6348  166.1301 C.ar    1  UNL1        0.0000
     12 C         137.9232  139.0712  166.3767 C.ar    1  UNL1        0.0000
     13 C         138.2595  140.1135  165.3519 C.ar    1  UNL1        0.0001
     14 C         138.9509  139.7194  164.0804 C.ar    1  UNL1        0.0030
     15 C         139.2873  140.7617  163.0554 C.ar    1  UNL1        0.0367
     16 C         139.9786  140.3676  161.7839 C.ar    1  UNL1        0.1351
     17 O         140.3150  141.4099  160.7590 O.3     1  UNL1       -0.5055
     18 H         140.0933  142.3072  160.9130 H       1  UNL1        0.2922
     19 C         143.7839  138.3960  155.6163 C.3     1  UNL1        0.1135
     20 N         143.0988  137.3550  156.4511 N.pl3   1  UNL1       -0.2916
     21 C         143.1049  135.9200  156.0144 C.3     1  UNL1        0.0768
     22 C         143.6819  134.8655  156.9117 C.3     1  UNL1        0.0342
     23 C         143.6881  133.4305  156.4750 C.3     1  UNL1        0.0435
     24 C         143.9205  131.9490  156.5052 C.3     1  UNL1        0.0158
     25 C         144.3397  133.2965  157.8194 C.3     1  UNL1        0.0158
     26 N         143.1173  133.0500  155.1411 N.3     1  UNL1       -0.3015
     27 C         142.5402  134.1045  154.2438 C.3     1  UNL1        0.0435
     28 C         141.8865  134.7369  153.0510 C.3     1  UNL1        0.0158
     29 C         142.3194  132.8891  153.3929 C.3     1  UNL1        0.0158
     30 C         142.5341  135.5395  154.6805 C.3     1  UNL1        0.0342
     31 H         142.3726  132.3765  155.3208 H       1  UNL1        0.1231
@<TRIPOS>BOND
     1    19    20    1
     2    20     1    1
     3     1     2   ar
     4     2     3   ar
     5     3     4   ar
     6     4     7    1
     7     7     8   ar
     8     8     9   ar
     9     9    10   ar
    10    10    11   ar
    11    11    12   ar
    12    12    13   ar
    13    13    14   ar
    14    14    15   ar
    15    15    16   ar
    16    16    17    1
    17     4     5   ar
    18     5     6   ar
    19    20    21    1
    20    21    22    1
    21    22    23    1
    22    23    24    1
    23    23    25    1
    24    23    26    1
    25    26    27    1
    26    27    28    1
    27    27    29    1
    28    27    30    1
    29     6     1   ar
    30    30    21    1
    31    16     7   ar
    32    14     9   ar
    33    17    18    1
    34    26    31    1
@<TRIPOS>MOLECULE
*****
 31 34 0 0 0
SMALL
GASTEIGER

@<TRIPOS>ATOM
      1 C         142.2710  138.2066  157.1127 C.ar    1  UNL1        0.1535
      2 C         141.2920  138.3549  158.2394 C.ar    1  UNL1        0.0377
      3 C         141.6851  139.0982  159.4815 C.ar    1  UNL1        0.0239
      4 C         143.0572  139.6931  159.5970 C.ar    1  UNL1        0.1059
      5 N         144.0362  139.5448  158.4703 N.ar    1  UNL1       -0.1467
      6 N         143.6431  138.8016  157.2281 N.ar    1  UNL1       -0.1329
      7 C         143.4503  140.4364  160.8392 C.ar    1  UNL1        0.0531
      8 C         143.0876  141.8836  160.9937 C.ar    1  UNL1        0.0046
      9 C         143.4807  142.6269  162.2360 C.ar    1  UNL1        0.0002
     10 C         143.1179  144.0741  162.3905 C.ar    1  UNL1        0.0000
     11 C         143.5110  144.8173  163.6327 C.ar    1  UNL1        0.0000
     12 C         144.2669  144.1133  164.7204 C.ar    1  UNL1        0.0000
     13 C         144.6296  142.6660  164.5659 C.ar    1  UNL1        0.0001
     14 C         144.2365  141.9228  163.3237 C.ar    1  UNL1        0.0030
     15 C         144.5993  140.4755  163.1691 C.ar    1  UNL1        0.0367
     16 C         144.2062  139.7324  161.9269 C.ar    1  UNL1        0.1351
     17 O         144.5689  138.2851  161.7723 O.3     1  UNL1       -0.5055
     18 H         145.0411  137.8453  162.4517 H       1  UNL1        0.2922
     19 C         141.0880  138.1564  154.8001 C.3     1  UNL1        0.1135
     20 N         141.8779  137.4634  155.8704 N.pl3   1  UNL1       -0.2916
     21 C         142.2747  136.0270  155.6986 C.3     1  UNL1        0.0768
     22 C         142.9170  135.2855  156.8333 C.3     1  UNL1        0.0342
     23 C         143.3138  133.8492  156.6615 C.3     1  UNL1        0.0435
     24 C         143.8619  132.4903  156.9821 C.3     1  UNL1        0.0158
     25 C         143.7495  134.0720  158.0794 C.3     1  UNL1        0.0158
     26 N         143.0684  133.1544  155.3550 N.3     1  UNL1       -0.3015
     27 C         142.4262  133.8960  154.2202 C.3     1  UNL1        0.0435
     28 C         141.8526  134.1720  152.8620 C.3     1  UNL1        0.0158
     29 C         142.6238  132.5555  153.5767 C.3     1  UNL1        0.0158
     30 C         142.0293  135.3323  154.3920 C.3     1  UNL1        0.0342
     31 H         142.4732  132.3509  155.5560 H       1  UNL1        0.1231
@<TRIPOS>BOND
     1    19    20    1
     2    20     1    1
     3     1     2   ar
     4     2     3   ar
     5     3     4   ar
     6     4     7    1
     7     7     8   ar
     8     8     9   ar
     9     9    10   ar
    10    10    11   ar
    11    11    12   ar
    12    12    13   ar
    13    13    14   ar
    14    14    15   ar
    15    15    16   ar
    16    16    17    1
    17     4     5   ar
    18     5     6   ar
    19    20    21    1
    20    21    22    1
    21    22    23    1
    22    23    24    1
    23    23    25    1
    24    23    26    1
    25    26    27    1
    26    27    28    1
    27    27    29    1
    28    27    30    1
    29     6     1   ar
    30    30    21    1
    31    16     7   ar
    32    14     9   ar
    33    17    18    1
    34    26    31    1
@<TRIPOS>MOLECULE
*****
 31 34 0 0 0
SMALL
GASTEIGER

@<TRIPOS>ATOM
      1 C         142.5808  137.2255  157.4666 C.ar    1  UNL1        0.1535
      2 C         141.2070  137.8035  157.2979 C.ar    1  UNL1        0.0377
      3 C         140.5000  138.4122  158.4724 C.ar    1  UNL1        0.0239
      4 C         141.1667  138.4429  159.8157 C.ar    1  UNL1        0.1059
      5 N         142.5406  137.8649  159.9844 N.ar    1  UNL1       -0.1467
      6 N         143.2476  137.2562  158.8099 N.ar    1  UNL1       -0.1329
      7 C         140.4596  139.0516  160.9903 C.ar    1  UNL1        0.0531
      8 C         139.7717  140.3768  160.8472 C.ar    1  UNL1        0.0046
      9 C         139.0646  140.9855  162.0218 C.ar    1  UNL1        0.0002
     10 C         138.3767  142.3107  161.8787 C.ar    1  UNL1        0.0000
     11 C         137.6696  142.9193  163.0533 C.ar    1  UNL1        0.0000
     12 C         137.6505  142.2027  164.3709 C.ar    1  UNL1        0.0000
     13 C         138.3385  140.8775  164.5140 C.ar    1  UNL1        0.0001
     14 C         139.0455  140.2689  163.3394 C.ar    1  UNL1        0.0030
     15 C         139.7335  138.9436  163.4825 C.ar    1  UNL1        0.0367
     16 C         140.4405  138.3350  162.3079 C.ar    1  UNL1        0.1351
     17 O         141.1285  137.0097  162.4510 O.3     1  UNL1       -0.5055
     18 H         141.1166  136.5621  163.2740 H       1  UNL1        0.2922
     19 C         144.0838  137.4852  155.3634 C.3     1  UNL1        0.1135
     20 N         143.2879  136.6168  156.2920 N.pl3   1  UNL1       -0.2916
     21 C         143.1990  135.1398  156.0462 C.3     1  UNL1        0.0768
     22 C         143.9314  134.1850  156.9416 C.3     1  UNL1        0.0342
     23 C         143.8425  132.7080  156.6957 C.3     1  UNL1        0.0435
     24 C         144.0658  131.2346  156.8669 C.3     1  UNL1        0.0158
     25 C         144.7414  132.7186  157.8965 C.3     1  UNL1        0.0158
     26 N         143.0212  132.1857  155.5545 N.3     1  UNL1       -0.3015
     27 C         142.2887  133.1405  154.6589 C.3     1  UNL1        0.0435
     28 C         141.4207  133.6429  153.5436 C.3     1  UNL1        0.0158
     29 C         141.8984  131.8380  154.0257 C.3     1  UNL1        0.0158
     30 C         142.3776  134.6175  154.9048 C.3     1  UNL1        0.0342
     31 H         142.3207  131.5629  155.9566 H       1  UNL1        0.1231
@<TRIPOS>BOND
     1    19    20    1
     2    20     1    1
     3     1     2   ar
     4     2     3   ar
     5     3     4   ar
     6     4     7    1
     7     7     8   ar
     8     8     9   ar
     9     9    10   ar
    10    10    11   ar
    11    11    12   ar
    12    12    13   ar
    13    13    14   ar
    14    14    15   ar
    15    15    16   ar
    16    16    17    1
    17     4     5   ar
    18     5     6   ar
    19    20    21    1
    20    21    22    1
    21    22    23    1
    22    23    24    1
    23    23    25    1
    24    23    26    1
    25    26    27    1
    26    27    28    1
    27    27    29    1
    28    27    30    1
    29     6     1   ar
    30    30    21    1
    31    16     7   ar
    32    14     9   ar
    33    17    18    1
    34    26    31    1
@<TRIPOS>MOLECULE
*****
 31 34 0 0 0
SMALL
GASTEIGER

@<TRIPOS>ATOM
      1 C         142.7211  138.4407  156.7783 C.ar    1  UNL1        0.1535
      2 C         141.7374  138.3744  157.9088 C.ar    1  UNL1        0.0377
      3 C         142.0493  139.0437  159.2144 C.ar    1  UNL1        0.0239
      4 C         143.3449  139.7791  159.3896 C.ar    1  UNL1        0.1059
      5 N         144.3285  139.8454  158.2591 N.ar    1  UNL1       -0.1467
      6 N         144.0166  139.1761  156.9535 N.ar    1  UNL1       -0.1329
      7 C         143.6568  140.4484  160.6953 C.ar    1  UNL1        0.0531
      8 C         143.3589  141.9068  160.8806 C.ar    1  UNL1        0.0046
      9 C         143.6707  142.5760  162.1864 C.ar    1  UNL1        0.0002
     10 C         143.3728  144.0344  162.3716 C.ar    1  UNL1        0.0000
     11 C         143.6847  144.7036  163.6773 C.ar    1  UNL1        0.0000
     12 C         144.2945  143.9144  164.7978 C.ar    1  UNL1        0.0000
     13 C         144.5924  142.4560  164.6125 C.ar    1  UNL1        0.0001
     14 C         144.2805  141.7868  163.3068 C.ar    1  UNL1        0.0030
     15 C         144.5784  140.3284  163.1215 C.ar    1  UNL1        0.0367
     16 C         144.2665  139.6592  161.8158 C.ar    1  UNL1        0.1351
     17 O         144.5645  138.2008  161.6304 O.3     1  UNL1       -0.5055
     18 H         144.9454  137.7078  162.3303 H       1  UNL1        0.2922
     19 C         141.9840  138.5926  154.2916 C.3     1  UNL1        0.1135
     20 N         142.4092  137.7714  155.4725 N.pl3   1  UNL1       -0.2916
     21 C         142.5226  136.2809  155.3478 C.3     1  UNL1        0.0768
     22 C         142.1643  135.6069  154.0566 C.3     1  UNL1        0.0342
     23 C         142.2777  134.1164  153.9319 C.3     1  UNL1        0.0435
     24 C         142.2204  132.7440  153.3294 C.3     1  UNL1        0.0158
     25 C         141.7861  134.4563  152.5561 C.3     1  UNL1        0.0158
     26 N         142.7494  133.2999  155.0984 N.3     1  UNL1       -0.3015
     27 C         143.1077  133.9739  156.3897 C.3     1  UNL1        0.0435
     28 C         143.5599  134.1517  157.8088 C.3     1  UNL1        0.0158
     29 C         143.3782  132.5452  156.7578 C.3     1  UNL1        0.0158
     30 C         142.9943  135.4644  156.5144 C.3     1  UNL1        0.0342
     31 H         143.5806  132.7964  154.7885 H       1  UNL1        0.1231
@<TRIPOS>BOND
     1    19    20    1
     2    20     1    1
     3     1     2   ar
     4     2     3   ar
     5     3     4   ar
     6     4     7    1
     7     7     8   ar
     8     8     9   ar
     9     9    10   ar
    10    10    11   ar
    11    11    12   ar
    12    12    13   ar
    13    13    14   ar
    14    14    15   ar
    15    15    16   ar
    16    16    17    1
    17     4     5   ar
    18     5     6   ar
    19    20    21    1
    20    21    22    1
    21    22    23    1
    22    23    24    1
    23    23    25    1
    24    23    26    1
    25    26    27    1
    26    27    28    1
    27    27    29    1
    28    27    30    1
    29     6     1   ar
    30    30    21    1
    31    16     7   ar
    32    14     9   ar
    33    17    18    1
    34    26    31    1
