@<TRIPOS>MOLECULE
*****
 32 36 0 0 0
SMALL
GASTEIGER

@<TRIPOS>ATOM
      1 C         141.2318  142.3925  163.6728 C.ar    1  UNL1        0.1065
      2 N         142.5645  142.0567  163.0719 N.ar    1  UNL1       -0.1679
      3 N         142.8085  142.9980  161.9298 N.ar    1  UNL1       -0.2340
      4 C         141.6266  143.9155  161.8248 C.ar    1  UNL1        0.1653
      5 N         141.3117  145.0435  160.8875 N.ar    1  UNL1       -0.2050
      6 C         140.0223  145.7972  161.0274 C.ar    1  UNL1        0.2014
      7 N         139.0479  145.4230  162.1046 N.ar    1  UNL1       -0.2093
      8 C         139.3628  144.2951  163.0420 C.ar    1  UNL1        0.1316
      9 N         138.3883  143.9209  164.1192 N.pl3   1  UNL1       -0.3425
     10 C         140.6521  143.5414  162.9020 C.ar    1  UNL1        0.0860
     11 H         137.5421  144.4156  164.2110 H       1  UNL1        0.1437
     12 H         138.5950  143.1806  164.7344 H       1  UNL1        0.1437
     13 C         138.8656  140.1597  169.7281 C.ar    1  UNL1        0.1386
     14 C         139.7021  141.3850  169.9493 C.ar    1  UNL1        0.0369
     15 C         140.3427  142.0766  168.7825 C.ar    1  UNL1        0.0031
     16 C         140.1467  141.5429  167.3945 C.ar    1  UNL1        0.0002
     17 C         140.7873  142.2345  166.2277 C.ar    1  UNL1        0.0016
     18 C         140.5913  141.7009  164.8396 C.ar    1  UNL1        0.0195
     19 C         139.7547  140.4756  164.6183 C.ar    1  UNL1        0.0016
     20 C         139.1142  139.7840  165.7851 C.ar    1  UNL1        0.0001
     21 C         139.3102  140.3177  167.1732 C.ar    1  UNL1        0.0030
     22 C         138.6697  139.6261  168.3400 C.ar    1  UNL1        0.0369
     23 O         138.2251  139.4682  170.8949 O.3     1  UNL1       -0.4755
     24 C         136.2239  138.0485  171.7492 C.3     1  UNL1        0.0512
     25 C         136.7661  139.1223  170.8531 C.3     1  UNL1        0.2055
     26 C         144.0214  143.0182  161.0476 C.3     1  UNL1        0.1292
     27 C         144.1348  142.0514  159.9063 C.3     1  UNL1        0.0295
     28 C         144.8245  142.4637  158.6397 C.3     1  UNL1        0.0341
     29 C         144.9379  141.4969  157.4984 C.3     1  UNL1        0.1422
     30 O         144.3617  140.1177  157.6238 O.3     1  UNL1       -0.3538
     31 C         143.6720  139.7054  158.8904 C.3     1  UNL1        0.1422
     32 C         143.5586  140.6722  160.0316 C.3     1  UNL1        0.0341
@<TRIPOS>BOND
     1    24    25    1
     2    25    23    1
     3    23    13    1
     4    13    14   ar
     5    14    15   ar
     6    15    16   ar
     7    16    17   ar
     8    17    18   ar
     9    18     1    1
    10     1     2   ar
    11     2     3   ar
    12     3    26    1
    13    26    27    1
    14    27    28    1
    15    28    29    1
    16    29    30    1
    17    30    31    1
    18    31    32    1
    19     3     4   ar
    20     4     5   ar
    21     5     6   ar
    22     6     7   ar
    23     7     8   ar
    24     8     9    1
    25     8    10   ar
    26    18    19   ar
    27    19    20   ar
    28    20    21   ar
    29    21    22   ar
    30    22    13   ar
    31    21    16   ar
    32    10     1   ar
    33    32    27    1
    34    10     4   ar
    35     9    11    1
    36     9    12    1
@<TRIPOS>MOLECULE
*****
 32 36 0 0 0
SMALL
GASTEIGER

@<TRIPOS>ATOM
      1 C         140.2552  138.7162  160.9383 C.ar    1  UNL1        0.1065
      2 N         141.5091  138.1440  160.3464 N.ar    1  UNL1       -0.1679
      3 N         141.4591  138.3547  158.8621 N.ar    1  UNL1       -0.2340
      4 C         140.1744  139.0571  158.5366 C.ar    1  UNL1        0.1653
      5 N         139.5858  139.5222  157.2376 N.ar    1  UNL1       -0.2050
      6 C         138.2532  140.2107  157.2218 C.ar    1  UNL1        0.2014
      7 N         137.5092  140.4342  158.5050 N.ar    1  UNL1       -0.2093
      8 C         138.0977  139.9691  159.8039 C.ar    1  UNL1        0.1316
      9 N         137.3537  140.1925  161.0871 N.pl3   1  UNL1       -0.3425
     10 C         139.4303  139.2806  159.8197 C.ar    1  UNL1        0.0860
     11 H         136.4791  140.6444  161.0767 H       1  UNL1        0.1437
     12 H         137.7400  139.8873  161.9397 H       1  UNL1        0.1437
     13 C         139.2339  139.8776  167.6359 C.ar    1  UNL1        0.1386
     14 C         140.0370  141.0054  167.0589 C.ar    1  UNL1        0.0369
     15 C         140.4019  140.9987  165.6039 C.ar    1  UNL1        0.0031
     16 C         139.9637  139.8642  164.7260 C.ar    1  UNL1        0.0002
     17 C         140.3285  139.8575  163.2711 C.ar    1  UNL1        0.0016
     18 C         139.8904  138.7229  162.3932 C.ar    1  UNL1        0.0195
     19 C         139.0872  137.5950  162.9702 C.ar    1  UNL1        0.0016
     20 C         138.7223  137.6017  164.4251 C.ar    1  UNL1        0.0001
     21 C         139.1606  138.7364  165.3030 C.ar    1  UNL1        0.0030
     22 C         138.7957  138.7431  166.7580 C.ar    1  UNL1        0.0369
     23 O         138.8690  139.8843  169.0908 O.3     1  UNL1       -0.4755
     24 C         141.1793  139.7601  170.2727 C.3     1  UNL1        0.0512
     25 C         139.8394  140.4131  170.1050 C.3     1  UNL1        0.2055
     26 C         142.5094  137.9364  157.8763 C.3     1  UNL1        0.1292
     27 C         142.3127  136.6999  157.0503 C.3     1  UNL1        0.0295
     28 C         143.1317  135.4742  157.3280 C.3     1  UNL1        0.0341
     29 C         142.9350  134.2377  156.5020 C.3     1  UNL1        0.1422
     30 O         141.9194  134.2268  155.3982 O.3     1  UNL1       -0.3538
     31 C         141.1004  135.4524  155.1205 C.3     1  UNL1        0.1422
     32 C         141.2971  136.6890  155.9465 C.3     1  UNL1        0.0341
@<TRIPOS>BOND
     1    24    25    1
     2    25    23    1
     3    23    13    1
     4    13    14   ar
     5    14    15   ar
     6    15    16   ar
     7    16    17   ar
     8    17    18   ar
     9    18     1    1
    10     1     2   ar
    11     2     3   ar
    12     3    26    1
    13    26    27    1
    14    27    28    1
    15    28    29    1
    16    29    30    1
    17    30    31    1
    18    31    32    1
    19     3     4   ar
    20     4     5   ar
    21     5     6   ar
    22     6     7   ar
    23     7     8   ar
    24     8     9    1
    25     8    10   ar
    26    18    19   ar
    27    19    20   ar
    28    20    21   ar
    29    21    22   ar
    30    22    13   ar
    31    21    16   ar
    32    10     1   ar
    33    32    27    1
    34    10     4   ar
    35     9    11    1
    36     9    12    1
@<TRIPOS>MOLECULE
*****
 32 36 0 0 0
SMALL
GASTEIGER

@<TRIPOS>ATOM
      1 C         140.8955  142.9446  164.2693 C.ar    1  UNL1        0.1065
      2 N         141.9265  143.1889  165.3311 N.ar    1  UNL1       -0.1679
      3 N         141.6888  142.2096  166.4422 N.ar    1  UNL1       -0.2340
      4 C         140.5109  141.3600  166.0671 C.ar    1  UNL1        0.1653
      5 N         139.8213  140.2315  166.7748 N.ar    1  UNL1       -0.2050
      6 C         138.6415  139.5571  166.1396 C.ar    1  UNL1        0.2014
      7 N         138.1513  140.0113  164.7967 N.ar    1  UNL1       -0.2093
      8 C         138.8408  141.1398  164.0890 C.ar    1  UNL1        0.1316
      9 N         138.3506  141.5941  162.7461 N.pl3   1  UNL1       -0.3425
     10 C         140.0206  141.8142  164.7241 C.ar    1  UNL1        0.0860
     11 H         137.5763  141.1515  162.3292 H       1  UNL1        0.1437
     12 H         138.8032  142.3348  162.2815 H       1  UNL1        0.1437
     13 C         141.1437  145.5247  157.9029 C.ar    1  UNL1        0.1386
     14 C         142.0555  144.3367  157.9871 C.ar    1  UNL1        0.0369
     15 C         142.1883  143.5831  159.2772 C.ar    1  UNL1        0.0031
     16 C         141.4092  144.0174  160.4831 C.ar    1  UNL1        0.0002
     17 C         141.5419  143.2638  161.7732 C.ar    1  UNL1        0.0016
     18 C         140.7628  143.6982  162.9792 C.ar    1  UNL1        0.0195
     19 C         139.8509  144.8862  162.8950 C.ar    1  UNL1        0.0016
     20 C         139.7181  145.6399  161.6049 C.ar    1  UNL1        0.0001
     21 C         140.4973  145.2054  160.3989 C.ar    1  UNL1        0.0030
     22 C         140.3646  145.9591  159.1088 C.ar    1  UNL1        0.0369
     23 O         141.0109  146.2783  156.6127 O.3     1  UNL1       -0.4755
     24 C         139.5643  147.7557  155.0397 C.3     1  UNL1        0.0512
     25 C         139.6663  146.7720  156.1675 C.3     1  UNL1        0.2055
     26 C         142.4884  142.0993  167.7063 C.3     1  UNL1        0.1292
     27 C         141.7961  142.1284  169.0367 C.3     1  UNL1        0.0295
     28 C         142.2342  141.2003  170.1307 C.3     1  UNL1        0.0341
     29 C         141.5418  141.2294  171.4610 C.3     1  UNL1        0.1422
     30 O         140.4113  142.1866  171.6974 O.3     1  UNL1       -0.3538
     31 C         139.9732  143.1146  170.6034 C.3     1  UNL1        0.1422
     32 C         140.6656  143.0855  169.2730 C.3     1  UNL1        0.0341
@<TRIPOS>BOND
     1    24    25    1
     2    25    23    1
     3    23    13    1
     4    13    14   ar
     5    14    15   ar
     6    15    16   ar
     7    16    17   ar
     8    17    18   ar
     9    18     1    1
    10     1     2   ar
    11     2     3   ar
    12     3    26    1
    13    26    27    1
    14    27    28    1
    15    28    29    1
    16    29    30    1
    17    30    31    1
    18    31    32    1
    19     3     4   ar
    20     4     5   ar
    21     5     6   ar
    22     6     7   ar
    23     7     8   ar
    24     8     9    1
    25     8    10   ar
    26    18    19   ar
    27    19    20   ar
    28    20    21   ar
    29    21    22   ar
    30    22    13   ar
    31    21    16   ar
    32    10     1   ar
    33    32    27    1
    34    10     4   ar
    35     9    11    1
    36     9    12    1
@<TRIPOS>MOLECULE
*****
 32 36 0 0 0
SMALL
GASTEIGER

@<TRIPOS>ATOM
      1 C         140.9671  138.6091  159.9063 C.ar    1  UNL1        0.1065
      2 N         142.1200  137.7924  159.4025 N.ar    1  UNL1       -0.1679
      3 N         141.9948  137.6837  157.9117 N.ar    1  UNL1       -0.2340
      4 C         140.7644  138.4333  157.4941 C.ar    1  UNL1        0.1653
      5 N         140.1404  138.6689  156.1506 N.ar    1  UNL1       -0.2050
      6 C         138.8811  139.4766  156.0398 C.ar    1  UNL1        0.2014
      7 N         138.2461  140.0485  157.2725 N.ar    1  UNL1       -0.2093
      8 C         138.8701  139.8129  158.6160 C.ar    1  UNL1        0.1316
      9 N         138.2350  140.3848  159.8487 N.pl3   1  UNL1       -0.3425
     10 C         140.1293  139.0053  158.7267 C.ar    1  UNL1        0.0860
     11 H         137.4086  140.9149  159.7759 H       1  UNL1        0.1437
     12 H         138.6446  140.2302  160.7304 H       1  UNL1        0.1437
     13 C         139.0642  139.1323  166.4907 C.ar    1  UNL1        0.1386
     14 C         138.5014  137.8662  165.9161 C.ar    1  UNL1        0.0369
     15 C         138.7694  137.5084  164.4843 C.ar    1  UNL1        0.0031
     16 C         139.6002  138.4166  163.6271 C.ar    1  UNL1        0.0002
     17 C         139.8683  138.0588  162.1953 C.ar    1  UNL1        0.0016
     18 C         140.6991  138.9670  161.3381 C.ar    1  UNL1        0.0195
     19 C         141.2620  140.2331  161.9127 C.ar    1  UNL1        0.0016
     20 C         140.9939  140.5910  163.3446 C.ar    1  UNL1        0.0001
     21 C         140.1630  139.6827  164.2017 C.ar    1  UNL1        0.0030
     22 C         139.8950  140.0405  165.6336 C.ar    1  UNL1        0.0369
     23 O         138.7962  139.4901  167.9226 O.3     1  UNL1       -0.4755
     24 C         139.3893  140.9866  169.9618 C.3     1  UNL1        0.0512
     25 C         139.7982  140.2965  168.6943 C.3     1  UNL1        0.2055
     26 C         142.9347  136.9536  156.9988 C.3     1  UNL1        0.1292
     27 C         142.6826  135.5148  156.6577 C.3     1  UNL1        0.0295
     28 C         143.4389  134.4319  157.3686 C.3     1  UNL1        0.0341
     29 C         143.1868  132.9931  157.0274 C.3     1  UNL1        0.1422
     30 O         142.1785  132.6372  155.9755 O.3     1  UNL1       -0.3538
     31 C         141.4223  133.7202  155.2646 C.3     1  UNL1        0.1422
     32 C         141.6744  135.1590  155.6057 C.3     1  UNL1        0.0341
@<TRIPOS>BOND
     1    24    25    1
     2    25    23    1
     3    23    13    1
     4    13    14   ar
     5    14    15   ar
     6    15    16   ar
     7    16    17   ar
     8    17    18   ar
     9    18     1    1
    10     1     2   ar
    11     2     3   ar
    12     3    26    1
    13    26    27    1
    14    27    28    1
    15    28    29    1
    16    29    30    1
    17    30    31    1
    18    31    32    1
    19     3     4   ar
    20     4     5   ar
    21     5     6   ar
    22     6     7   ar
    23     7     8   ar
    24     8     9    1
    25     8    10   ar
    26    18    19   ar
    27    19    20   ar
    28    20    21   ar
    29    21    22   ar
    30    22    13   ar
    31    21    16   ar
    32    10     1   ar
    33    32    27    1
    34    10     4   ar
    35     9    11    1
    36     9    12    1
@<TRIPOS>MOLECULE
*****
 32 36 0 0 0
SMALL
GASTEIGER

@<TRIPOS>ATOM
      1 C         139.3719  143.3501  160.7133 C.ar    1  UNL1        0.1065
      2 N         138.3109  142.6251  159.9397 N.ar    1  UNL1       -0.1679
      3 N         138.5051  142.9342  158.4848 N.ar    1  UNL1       -0.2340
      4 C         139.6862  143.8503  158.3592 C.ar    1  UNL1        0.1653
      5 N         140.3430  144.4837  157.1687 N.ar    1  UNL1       -0.2050
      6 C         141.5357  145.3742  157.3555 C.ar    1  UNL1        0.2014
      7 N         142.0714  145.6313  158.7328 N.ar    1  UNL1       -0.2093
      8 C         141.4145  144.9979  159.9233 C.ar    1  UNL1        0.1316
      9 N         141.9502  145.2549  161.3006 N.pl3   1  UNL1       -0.3425
     10 C         140.2220  144.1075  159.7365 C.ar    1  UNL1        0.0860
     11 H         142.7329  145.8394  161.4232 H       1  UNL1        0.1437
     12 H         141.5191  144.8392  162.0820 H       1  UNL1        0.1437
     13 C         141.0642  142.2837  167.2897 C.ar    1  UNL1        0.1386
     14 C         141.8589  141.3540  166.4212 C.ar    1  UNL1        0.0369
     15 C         141.6793  141.3814  164.9323 C.ar    1  UNL1        0.0031
     16 C         140.7052  142.3384  164.3118 C.ar    1  UNL1        0.0002
     17 C         140.5256  142.3658  162.8228 C.ar    1  UNL1        0.0016
     18 C         139.5515  143.3228  162.2023 C.ar    1  UNL1        0.0195
     19 C         138.7568  144.2525  163.0708 C.ar    1  UNL1        0.0016
     20 C         138.9363  144.2251  164.5597 C.ar    1  UNL1        0.0001
     21 C         139.9105  143.2680  165.1802 C.ar    1  UNL1        0.0030
     22 C         140.0901  143.2407  166.6692 C.ar    1  UNL1        0.0369
     23 O         141.2438  142.2563  168.7787 O.3     1  UNL1       -0.4755
     24 C         139.3862  140.6240  169.5756 C.3     1  UNL1        0.0512
     25 C         140.0758  141.9528  169.6695 C.3     1  UNL1        0.2055
     26 C         137.6657  142.4179  157.3540 C.3     1  UNL1        0.1292
     27 C         137.9750  141.0856  156.7380 C.3     1  UNL1        0.0295
     28 C         137.2227  140.6280  155.5236 C.3     1  UNL1        0.0341
     29 C         137.5319  139.2958  154.9076 C.3     1  UNL1        0.1422
     30 O         138.5934  138.4211  155.5059 O.3     1  UNL1       -0.3538
     31 C         139.3457  138.8786  156.7203 C.3     1  UNL1        0.1422
     32 C         139.0365  140.2109  157.3363 C.3     1  UNL1        0.0341
@<TRIPOS>BOND
     1    24    25    1
     2    25    23    1
     3    23    13    1
     4    13    14   ar
     5    14    15   ar
     6    15    16   ar
     7    16    17   ar
     8    17    18   ar
     9    18     1    1
    10     1     2   ar
    11     2     3   ar
    12     3    26    1
    13    26    27    1
    14    27    28    1
    15    28    29    1
    16    29    30    1
    17    30    31    1
    18    31    32    1
    19     3     4   ar
    20     4     5   ar
    21     5     6   ar
    22     6     7   ar
    23     7     8   ar
    24     8     9    1
    25     8    10   ar
    26    18    19   ar
    27    19    20   ar
    28    20    21   ar
    29    21    22   ar
    30    22    13   ar
    31    21    16   ar
    32    10     1   ar
    33    32    27    1
    34    10     4   ar
    35     9    11    1
    36     9    12    1
@<TRIPOS>MOLECULE
*****
 32 36 0 0 0
SMALL
GASTEIGER

@<TRIPOS>ATOM
      1 C         143.5631  140.4355  161.0744 C.ar    1  UNL1        0.1065
      2 N         144.0365  141.7083  160.4372 N.ar    1  UNL1       -0.1679
      3 N         144.0808  141.4950  158.9530 N.ar    1  UNL1       -0.2340
      4 C         143.6348  140.0905  158.6730 C.ar    1  UNL1        0.1653
      5 N         143.4787  139.3232  157.3936 N.ar    1  UNL1       -0.2050
      6 C         143.0027  137.9010  157.4253 C.ar    1  UNL1        0.2014
      7 N         142.6827  137.2462  158.7364 N.ar    1  UNL1       -0.2093
      8 C         142.8388  138.0135  160.0158 C.ar    1  UNL1        0.1316
      9 N         142.5189  137.3587  161.3268 N.pl3   1  UNL1       -0.3425
     10 C         143.3149  139.4356  159.9841 C.ar    1  UNL1        0.0860
     11 H         142.2065  136.4254  161.3476 H       1  UNL1        0.1437
     12 H         142.6214  137.8624  162.1666 H       1  UNL1        0.1437
     13 C         141.4887  139.8484  167.6014 C.ar    1  UNL1        0.1386
     14 C         140.3717  140.4221  166.7809 C.ar    1  UNL1        0.0369
     15 C         140.5632  140.6542  165.3114 C.ar    1  UNL1        0.0031
     16 C         141.8717  140.3127  164.6624 C.ar    1  UNL1        0.0002
     17 C         142.0632  140.5449  163.1929 C.ar    1  UNL1        0.0016
     18 C         143.3717  140.2034  162.5439 C.ar    1  UNL1        0.0195
     19 C         144.4887  139.6297  163.3644 C.ar    1  UNL1        0.0016
     20 C         144.2972  139.3975  164.8339 C.ar    1  UNL1        0.0001
     21 C         142.9887  139.7391  165.4829 C.ar    1  UNL1        0.0030
     22 C         142.7972  139.5069  166.9524 C.ar    1  UNL1        0.0369
     23 O         141.2972  139.6163  169.0709 O.3     1  UNL1       -0.4755
     24 C         142.9635  138.0712  170.3303 C.3     1  UNL1        0.0512
     25 C         142.4895  139.4466  169.9651 C.3     1  UNL1        0.2055
     26 C         144.4979  142.5083  157.9288 C.3     1  UNL1        0.1292
     27 C         145.7355  142.2832  157.1117 C.3     1  UNL1        0.0295
     28 C         147.0482  142.8477  157.5677 C.3     1  UNL1        0.0341
     29 C         148.2859  142.6226  156.7506 C.3     1  UNL1        0.1422
     30 O         148.2107  141.8329  155.4775 O.3     1  UNL1       -0.3538
     31 C         146.8979  141.2683  155.0215 C.3     1  UNL1        0.1422
     32 C         145.6603  141.4935  155.8386 C.3     1  UNL1        0.0341
@<TRIPOS>BOND
     1    24    25    1
     2    25    23    1
     3    23    13    1
     4    13    14   ar
     5    14    15   ar
     6    15    16   ar
     7    16    17   ar
     8    17    18   ar
     9    18     1    1
    10     1     2   ar
    11     2     3   ar
    12     3    26    1
    13    26    27    1
    14    27    28    1
    15    28    29    1
    16    29    30    1
    17    30    31    1
    18    31    32    1
    19     3     4   ar
    20     4     5   ar
    21     5     6   ar
    22     6     7   ar
    23     7     8   ar
    24     8     9    1
    25     8    10   ar
    26    18    19   ar
    27    19    20   ar
    28    20    21   ar
    29    21    22   ar
    30    22    13   ar
    31    21    16   ar
    32    10     1   ar
    33    32    27    1
    34    10     4   ar
    35     9    11    1
    36     9    12    1
@<TRIPOS>MOLECULE
*****
 32 36 0 0 0
SMALL
GASTEIGER

@<TRIPOS>ATOM
      1 C         143.3510  142.1914  161.2493 C.ar    1  UNL1        0.1065
      2 N         143.9840  141.1108  160.4238 N.ar    1  UNL1       -0.1679
      3 N         143.8458  141.4901  158.9791 N.ar    1  UNL1       -0.2340
      4 C         143.1273  142.8051  158.9118 C.ar    1  UNL1        0.1653
      5 N         142.7121  143.6639  157.7542 N.ar    1  UNL1       -0.2050
      6 C         141.9909  144.9561  157.9996 C.ar    1  UNL1        0.2014
      7 N         141.6852  145.3896  159.4027 N.ar    1  UNL1       -0.2093
      8 C         142.1004  144.5308  160.5603 C.ar    1  UNL1        0.1316
      9 N         141.7946  144.9643  161.9634 N.pl3   1  UNL1       -0.3425
     10 C         142.8215  143.2386  160.3149 C.ar    1  UNL1        0.0860
     11 H         141.3214  145.8124  162.1245 H       1  UNL1        0.1437
     12 H         142.0672  144.4006  162.7232 H       1  UNL1        0.1437
     13 C         141.8122  141.7037  167.9310 C.ar    1  UNL1        0.1386
     14 C         140.7139  141.0736  167.1269 C.ar    1  UNL1        0.0369
     15 C         140.8020  141.0451  165.6298 C.ar    1  UNL1        0.0031
     16 C         141.9884  141.6468  164.9367 C.ar    1  UNL1        0.0002
     17 C         142.0765  141.6183  163.4395 C.ar    1  UNL1        0.0016
     18 C         143.2629  142.2199  162.7465 C.ar    1  UNL1        0.0195
     19 C         144.3613  142.8501  163.5505 C.ar    1  UNL1        0.0016
     20 C         144.2732  142.8786  165.0477 C.ar    1  UNL1        0.0001
     21 C         143.0867  142.2769  165.7407 C.ar    1  UNL1        0.0030
     22 C         142.9986  142.3054  167.2379 C.ar    1  UNL1        0.0369
     23 O         141.7241  141.7322  169.4281 O.3     1  UNL1       -0.4755
     24 C         140.3666  143.9133  169.8151 C.3     1  UNL1        0.0512
     25 C         140.5964  142.4586  170.0994 C.3     1  UNL1        0.2055
     26 C         144.3393  140.6941  157.8075 C.3     1  UNL1        0.1292
     27 C         145.1892  141.3500  156.7598 C.3     1  UNL1        0.0295
     28 C         144.9033  141.1142  155.3063 C.3     1  UNL1        0.0341
     29 C         145.7532  141.7700  154.2587 C.3     1  UNL1        0.1422
     30 O         146.8891  142.6617  154.6645 O.3     1  UNL1       -0.3538
     31 C         147.1750  142.8975  156.1180 C.3     1  UNL1        0.1422
     32 C         146.3251  142.2416  157.1657 C.3     1  UNL1        0.0341
@<TRIPOS>BOND
     1    24    25    1
     2    25    23    1
     3    23    13    1
     4    13    14   ar
     5    14    15   ar
     6    15    16   ar
     7    16    17   ar
     8    17    18   ar
     9    18     1    1
    10     1     2   ar
    11     2     3   ar
    12     3    26    1
    13    26    27    1
    14    27    28    1
    15    28    29    1
    16    29    30    1
    17    30    31    1
    18    31    32    1
    19     3     4   ar
    20     4     5   ar
    21     5     6   ar
    22     6     7   ar
    23     7     8   ar
    24     8     9    1
    25     8    10   ar
    26    18    19   ar
    27    19    20   ar
    28    20    21   ar
    29    21    22   ar
    30    22    13   ar
    31    21    16   ar
    32    10     1   ar
    33    32    27    1
    34    10     4   ar
    35     9    11    1
    36     9    12    1
@<TRIPOS>MOLECULE
*****
 32 36 0 0 0
SMALL
GASTEIGER

@<TRIPOS>ATOM
      1 C         141.3664  139.8559  164.1197 C.ar    1  UNL1        0.1065
      2 N         142.1090  140.9404  164.8425 N.ar    1  UNL1       -0.1679
      3 N         141.4353  141.1620  166.1643 N.ar    1  UNL1       -0.2340
      4 C         140.2763  140.2144  166.2583 C.ar    1  UNL1        0.1653
      5 N         139.2542  139.9823  167.3314 N.ar    1  UNL1       -0.2050
      6 C         138.1894  138.9430  167.1408 C.ar    1  UNL1        0.2014
      7 N         138.1468  138.1358  165.8772 N.ar    1  UNL1       -0.2093
      8 C         139.1689  138.3680  164.8041 C.ar    1  UNL1        0.1316
      9 N         139.1263  137.5608  163.5405 N.pl3   1  UNL1       -0.3425
     10 C         140.2336  139.4072  164.9947 C.ar    1  UNL1        0.0860
     11 H         138.4275  136.8787  163.4154 H       1  UNL1        0.1437
     12 H         139.7972  137.7132  162.8363 H       1  UNL1        0.1437
     13 C         141.8394  138.0525  157.5035 C.ar    1  UNL1        0.1386
     14 C         140.6535  138.9531  157.6833 C.ar    1  UNL1        0.0369
     15 C         140.3217  139.4939  159.0425 C.ar    1  UNL1        0.0031
     16 C         141.1759  139.1341  160.2219 C.ar    1  UNL1        0.0002
     17 C         140.8441  139.6749  161.5811 C.ar    1  UNL1        0.0016
     18 C         141.6982  139.3151  162.7605 C.ar    1  UNL1        0.0195
     19 C         142.8842  138.4144  162.5807 C.ar    1  UNL1        0.0016
     20 C         143.2159  137.8736  161.2215 C.ar    1  UNL1        0.0001
     21 C         142.3618  138.2334  160.0421 C.ar    1  UNL1        0.0030
     22 C         142.6936  137.6926  158.6829 C.ar    1  UNL1        0.0369
     23 O         142.1712  137.5116  156.1443 O.3     1  UNL1       -0.4755
     24 C         142.2782  134.9158  156.1276 C.3     1  UNL1        0.0512
     25 C         141.6111  136.1912  155.7053 C.3     1  UNL1        0.2055
     26 C         141.8481  142.1564  167.2085 C.3     1  UNL1        0.1292
     27 C         141.8484  141.7664  168.6570 C.3     1  UNL1        0.0295
     28 C         140.9479  142.4752  169.6248 C.3     1  UNL1        0.0341
     29 C         140.9483  142.0852  171.0732 C.3     1  UNL1        0.1422
     30 O         141.8491  140.9864  171.5538 O.3     1  UNL1       -0.3538
     31 C         142.7496  140.2775  170.5860 C.3     1  UNL1        0.1422
     32 C         142.7493  140.6675  169.1376 C.3     1  UNL1        0.0341
@<TRIPOS>BOND
     1    24    25    1
     2    25    23    1
     3    23    13    1
     4    13    14   ar
     5    14    15   ar
     6    15    16   ar
     7    16    17   ar
     8    17    18   ar
     9    18     1    1
    10     1     2   ar
    11     2     3   ar
    12     3    26    1
    13    26    27    1
    14    27    28    1
    15    28    29    1
    16    29    30    1
    17    30    31    1
    18    31    32    1
    19     3     4   ar
    20     4     5   ar
    21     5     6   ar
    22     6     7   ar
    23     7     8   ar
    24     8     9    1
    25     8    10   ar
    26    18    19   ar
    27    19    20   ar
    28    20    21   ar
    29    21    22   ar
    30    22    13   ar
    31    21    16   ar
    32    10     1   ar
    33    32    27    1
    34    10     4   ar
    35     9    11    1
    36     9    12    1
@<TRIPOS>MOLECULE
*****
 32 36 0 0 0
SMALL
GASTEIGER

@<TRIPOS>ATOM
      1 C         140.5329  141.1087  163.3788 C.ar    1  UNL1        0.1065
      2 N         141.3870  140.7963  164.5717 N.ar    1  UNL1       -0.1679
      3 N         141.1080  141.8276  165.6245 N.ar    1  UNL1       -0.2340
      4 C         140.0813  142.7774  165.0824 C.ar    1  UNL1        0.1653
      5 N         139.4242  143.9895  165.6732 N.ar    1  UNL1       -0.2050
      6 C         138.4116  144.7573  164.8761 C.ar    1  UNL1        0.2014
      7 N         138.0562  144.3129  163.4882 N.ar    1  UNL1       -0.2093
      8 C         138.7134  143.1009  162.8973 C.ar    1  UNL1        0.1316
      9 N         138.3580  142.6565  161.5094 N.pl3   1  UNL1       -0.3425
     10 C         139.7259  142.3332  163.6944 C.ar    1  UNL1        0.0860
     11 H         137.6934  143.1604  160.9863 H       1  UNL1        0.1437
     12 H         138.7893  141.8610  161.1217 H       1  UNL1        0.1437
     13 C         141.4164  138.2402  157.1949 C.ar    1  UNL1        0.1386
     14 C         142.5004  139.2506  157.4268 C.ar    1  UNL1        0.0369
     15 C         142.5405  140.0264  158.7100 C.ar    1  UNL1        0.0031
     16 C         141.4966  139.7918  159.7612 C.ar    1  UNL1        0.0002
     17 C         141.5367  140.5676  161.0444 C.ar    1  UNL1        0.0016
     18 C         140.4928  140.3329  162.0956 C.ar    1  UNL1        0.0195
     19 C         139.4087  139.3224  161.8637 C.ar    1  UNL1        0.0016
     20 C         139.3686  138.5466  160.5806 C.ar    1  UNL1        0.0001
     21 C         140.4126  138.7813  159.5293 C.ar    1  UNL1        0.0030
     22 C         140.3725  138.0055  158.2461 C.ar    1  UNL1        0.0369
     23 O         141.3762  137.4644  155.9117 O.3     1  UNL1       -0.4755
     24 C         142.9644  135.6243  156.8292 C.3     1  UNL1        0.0512
     25 C         141.8972  136.0585  155.8687 C.3     1  UNL1        0.2055
     26 C         141.7438  141.8970  166.9813 C.3     1  UNL1        0.1292
     27 C         140.8921  141.8187  168.2135 C.3     1  UNL1        0.0295
     28 C         140.8266  142.9844  169.1553 C.3     1  UNL1        0.0341
     29 C         139.9749  142.9061  170.3876 C.3     1  UNL1        0.1422
     30 O         139.1887  141.6621  170.6781 O.3     1  UNL1       -0.3538
     31 C         139.2542  140.4965  169.7363 C.3     1  UNL1        0.1422
     32 C         140.1059  140.5748  168.5040 C.3     1  UNL1        0.0341
@<TRIPOS>BOND
     1    24    25    1
     2    25    23    1
     3    23    13    1
     4    13    14   ar
     5    14    15   ar
     6    15    16   ar
     7    16    17   ar
     8    17    18   ar
     9    18     1    1
    10     1     2   ar
    11     2     3   ar
    12     3    26    1
    13    26    27    1
    14    27    28    1
    15    28    29    1
    16    29    30    1
    17    30    31    1
    18    31    32    1
    19     3     4   ar
    20     4     5   ar
    21     5     6   ar
    22     6     7   ar
    23     7     8   ar
    24     8     9    1
    25     8    10   ar
    26    18    19   ar
    27    19    20   ar
    28    20    21   ar
    29    21    22   ar
    30    22    13   ar
    31    21    16   ar
    32    10     1   ar
    33    32    27    1
    34    10     4   ar
    35     9    11    1
    36     9    12    1
