@<TRIPOS>MOLECULE
*****
 39 42 0 0 0
SMALL
GASTEIGER

@<TRIPOS>ATOM
      1 C         138.3656  139.0231  160.5847 C.3     1  UNL1        0.0722
      2 N         138.5620  138.9702  165.0801 N.3     1  UNL1       -0.2665
      3 C         138.9693  137.7572  164.2973 C.3     1  UNL1        0.0899
      4 C         138.9038  137.7748  162.7988 C.3     1  UNL1        0.0897
      5 N         138.4310  139.0055  162.0832 N.3     1  UNL1       -0.2703
      6 C         138.0238  140.2184  162.8660 C.3     1  UNL1        0.0897
      7 C         138.0892  140.2008  164.3645 C.3     1  UNL1        0.0899
      8 C         138.6275  138.9526  166.5786 C.3     1  UNL1        0.0994
      9 C         141.9330  141.0035  167.3644 C.ar    1  UNL1        0.1752
     10 C         140.9363  140.1421  166.6471 C.ar    1  UNL1        0.0373
     11 C         139.6242  139.8140  167.2959 C.ar    1  UNL1        0.0001
     12 C         139.3089  140.3473  168.6619 C.ar    1  UNL1        0.0373
     13 C         140.3056  141.2087  169.3792 C.ar    1  UNL1        0.1752
     14 C         141.6177  141.5368  168.7304 C.ar    1  UNL1        0.2060
     15 C         143.5560  142.7461  166.3257 C.3     1  UNL1        0.2526
     16 O         143.2451  141.3315  166.7156 O.3     1  UNL1       -0.4683
     17 O         139.9903  141.7421  170.7453 O.3     1  UNL1       -0.4683
     18 C         139.4948  143.1487  170.9053 C.3     1  UNL1        0.2526
     19 O         142.6144  142.3982  169.4478 O.3     1  UNL1       -0.4654
     20 C         143.7728  141.7683  170.1630 C.3     1  UNL1        0.2528
     21 C         139.6306  139.0214  159.7786 C.3     1  UNL1        0.0173
     22 C         140.6889  140.0514  160.0416 C.3     1  UNL1        0.0014
     23 C         140.3678  141.5097  159.8995 C.3     1  UNL1        0.0007
     24 C         141.1392  142.5276  160.6862 C.3     1  UNL1        0.0087
     25 C         141.2823  142.3765  162.1716 C.3     1  UNL1        0.0446
     26 C         140.3255  143.0745  163.0921 C.ar    1  UNL1       -0.0183
     27 C         139.1331  143.7914  162.5313 C.ar    1  UNL1       -0.0017
     28 C         138.1763  144.4894  163.4518 C.ar    1  UNL1        0.0293
     29 C         138.4118  144.4705  164.9331 C.ar    1  UNL1        0.1401
     30 F         137.4550  145.1685  165.8536 F       1  UNL1       -0.2042
     31 C         139.6041  143.7536  165.4939 C.ar    1  UNL1        0.0293
     32 C         140.5609  143.0556  164.5734 C.ar    1  UNL1       -0.0017
     33 C         142.3822  141.5273  162.7367 C.ar    1  UNL1       -0.0183
     34 C         142.0728  140.1646  163.2820 C.ar    1  UNL1       -0.0017
     35 C         143.1726  139.3155  163.8471 C.ar    1  UNL1        0.0293
     36 C         144.5818  139.8289  163.8668 C.ar    1  UNL1        0.1401
     37 F         145.6816  138.9798  164.4318 F       1  UNL1       -0.2042
     38 C         144.8912  141.1916  163.3214 C.ar    1  UNL1        0.0293
     39 C         143.7914  142.0408  162.7564 C.ar    1  UNL1       -0.0017
@<TRIPOS>BOND
     1    15    16    1
     2    16     9    1
     3     9    10   ar
     4    10    11   ar
     5    11     8    1
     6     8     2    1
     7     2     3    1
     8     3     4    1
     9     4     5    1
    10     5     1    1
    11     1    21    1
    12    21    22    1
    13    22    23    1
    14    23    24    1
    15    24    25    1
    16    25    26    1
    17    26    27   ar
    18    27    28   ar
    19    28    29   ar
    20    29    30    1
    21    29    31   ar
    22    31    32   ar
    23    25    33    1
    24    33    34   ar
    25    34    35   ar
    26    35    36   ar
    27    36    37    1
    28    36    38   ar
    29    38    39   ar
    30     5     6    1
    31     6     7    1
    32    11    12   ar
    33    12    13   ar
    34    13    17    1
    35    17    18    1
    36    13    14   ar
    37    14    19    1
    38    19    20    1
    39    14     9   ar
    40     7     2    1
    41    32    26   ar
    42    39    33   ar
@<TRIPOS>MOLECULE
*****
 39 42 0 0 0
SMALL
GASTEIGER

@<TRIPOS>ATOM
      1 C         137.3085  139.7897  160.3981 C.3     1  UNL1        0.0722
      2 N         138.6635  139.0941  164.6324 N.3     1  UNL1       -0.2665
      3 C         138.7213  137.9767  163.6333 C.3     1  UNL1        0.0899
      4 C         138.2696  138.2086  162.2219 C.3     1  UNL1        0.0897
      5 N         137.7602  139.5579  161.8095 N.3     1  UNL1       -0.2703
      6 C         137.7024  140.6752  162.8086 C.3     1  UNL1        0.0897
      7 C         138.1541  140.4433  164.2201 C.3     1  UNL1        0.0899
      8 C         139.1152  138.8622  166.0439 C.3     1  UNL1        0.0994
      9 C         142.3072  141.1354  166.6718 C.ar    1  UNL1        0.1752
     10 C         141.3579  140.1738  166.0207 C.ar    1  UNL1        0.0373
     11 C         140.0646  139.8239  166.6951 C.ar    1  UNL1        0.0001
     12 C         139.7205  140.4357  168.0207 C.ar    1  UNL1        0.0373
     13 C         140.6698  141.3973  168.6719 C.ar    1  UNL1        0.1752
     14 C         141.9631  141.7472  167.9975 C.ar    1  UNL1        0.2060
     15 C         143.8891  140.9735  164.6173 C.3     1  UNL1        0.2526
     16 O         143.6005  141.4852  165.9974 O.3     1  UNL1       -0.4683
     17 O         140.3258  142.0092  169.9976 O.3     1  UNL1       -0.4683
     18 C         140.1450  143.4936  170.1142 C.3     1  UNL1        0.2526
     19 O         142.9124  142.7089  168.6487 O.3     1  UNL1       -0.4654
     20 C         143.8182  142.2398  169.7486 C.3     1  UNL1        0.2528
     21 C         138.2737  140.3191  159.3791 C.3     1  UNL1        0.0173
     22 C         138.4595  141.7990  159.2199 C.3     1  UNL1        0.0014
     23 C         139.7965  142.3482  158.8189 C.3     1  UNL1        0.0007
     24 C         140.6038  143.1468  159.7989 C.3     1  UNL1        0.0087
     25 C         140.9016  142.5866  161.1581 C.3     1  UNL1        0.0446
     26 C         141.7742  141.3743  161.2950 C.ar    1  UNL1       -0.0183
     27 C         143.2001  141.4204  160.8315 C.ar    1  UNL1       -0.0017
     28 C         144.0728  140.2081  160.9684 C.ar    1  UNL1        0.0293
     29 C         143.5196  138.9497  161.5688 C.ar    1  UNL1        0.1401
     30 F         144.3923  137.7374  161.7056 F       1  UNL1       -0.2042
     31 C         142.0938  138.9036  162.0323 C.ar    1  UNL1        0.0293
     32 C         141.2211  140.1160  161.8954 C.ar    1  UNL1       -0.0017
     33 C         140.3266  143.2388  162.3806 C.ar    1  UNL1       -0.0183
     34 C         139.0031  143.9406  162.3040 C.ar    1  UNL1       -0.0017
     35 C         138.4282  144.5927  163.5263 C.ar    1  UNL1        0.0293
     36 C         139.1767  144.5430  164.8253 C.ar    1  UNL1        0.1401
     37 F         138.6018  145.1951  166.0477 F       1  UNL1       -0.2042
     38 C         140.5002  143.8412  164.9019 C.ar    1  UNL1        0.0293
     39 C         141.0751  143.1890  163.6795 C.ar    1  UNL1       -0.0017
@<TRIPOS>BOND
     1    15    16    1
     2    16     9    1
     3     9    10   ar
     4    10    11   ar
     5    11     8    1
     6     8     2    1
     7     2     3    1
     8     3     4    1
     9     4     5    1
    10     5     1    1
    11     1    21    1
    12    21    22    1
    13    22    23    1
    14    23    24    1
    15    24    25    1
    16    25    26    1
    17    26    27   ar
    18    27    28   ar
    19    28    29   ar
    20    29    30    1
    21    29    31   ar
    22    31    32   ar
    23    25    33    1
    24    33    34   ar
    25    34    35   ar
    26    35    36   ar
    27    36    37    1
    28    36    38   ar
    29    38    39   ar
    30     5     6    1
    31     6     7    1
    32    11    12   ar
    33    12    13   ar
    34    13    17    1
    35    17    18    1
    36    13    14   ar
    37    14    19    1
    38    19    20    1
    39    14     9   ar
    40     7     2    1
    41    32    26   ar
    42    39    33   ar
@<TRIPOS>MOLECULE
*****
 39 42 0 0 0
SMALL
GASTEIGER

@<TRIPOS>ATOM
      1 C         139.2628  138.7190  160.3352 C.3     1  UNL1        0.0722
      2 N         138.5348  139.0510  164.7635 N.3     1  UNL1       -0.2665
      3 C         138.2052  140.2028  163.8608 C.3     1  UNL1        0.0899
      4 C         138.4479  140.0921  162.3847 C.3     1  UNL1        0.0897
      5 N         139.0201  138.8297  161.8113 N.3     1  UNL1       -0.2703
      6 C         139.3497  137.6779  162.7139 C.3     1  UNL1        0.0897
      7 C         139.1070  137.7886  164.1900 C.3     1  UNL1        0.0899
      8 C         138.2922  139.1616  166.2396 C.3     1  UNL1        0.0994
      9 C         140.2494  140.5708  169.3913 C.ar    1  UNL1        0.1752
     10 C         139.1243  140.1974  168.4723 C.ar    1  UNL1        0.0373
     11 C         139.4173  139.5351  167.1587 C.ar    1  UNL1        0.0001
     12 C         140.8353  139.2462  166.7642 C.ar    1  UNL1        0.0373
     13 C         141.9604  139.6197  167.6833 C.ar    1  UNL1        0.1752
     14 C         141.6674  140.2820  168.9968 C.ar    1  UNL1        0.2060
     15 C         139.8545  142.7275  170.7852 C.3     1  UNL1        0.2526
     16 O         139.9564  141.2331  170.7049 O.3     1  UNL1       -0.4683
     17 O         143.3785  139.3308  167.2888 O.3     1  UNL1       -0.4683
     18 C         143.7889  137.9316  166.9369 C.3     1  UNL1        0.2526
     19 O         142.7925  140.6554  169.9159 O.3     1  UNL1       -0.4654
     20 C         143.5027  141.9647  169.7386 C.3     1  UNL1        0.2528
     21 C         139.5555  139.9496  159.5289 C.3     1  UNL1        0.0173
     22 C         140.9689  140.2795  159.1502 C.3     1  UNL1        0.0014
     23 C         141.7134  141.3505  159.8908 C.3     1  UNL1        0.0007
     24 C         140.9767  142.2728  160.8164 C.3     1  UNL1        0.0087
     25 C         141.2610  142.2419  162.2889 C.3     1  UNL1        0.0446
     26 C         140.4121  143.0402  163.2335 C.ar    1  UNL1       -0.0183
     27 C         140.6562  142.9602  164.7114 C.ar    1  UNL1       -0.0017
     28 C         139.8074  143.7584  165.6560 C.ar    1  UNL1        0.0293
     29 C         138.7144  144.6366  165.1227 C.ar    1  UNL1        0.1401
     30 F         137.8656  145.4348  166.0673 F       1  UNL1       -0.2042
     31 C         138.4703  144.7165  163.6449 C.ar    1  UNL1        0.0293
     32 C         139.3192  143.9183  162.7003 C.ar    1  UNL1       -0.0017
     33 C         142.3941  141.4128  162.8168 C.ar    1  UNL1       -0.0183
     34 C         143.7646  142.0094  162.9431 C.ar    1  UNL1       -0.0017
     35 C         144.8977  141.1804  163.4710 C.ar    1  UNL1        0.0293
     36 C         144.6604  139.7547  163.8726 C.ar    1  UNL1        0.1401
     37 F         145.7935  138.9257  164.4005 F       1  UNL1       -0.2042
     38 C         143.2899  139.1581  163.7463 C.ar    1  UNL1        0.0293
     39 C         142.1568  139.9872  163.2183 C.ar    1  UNL1       -0.0017
@<TRIPOS>BOND
     1    15    16    1
     2    16     9    1
     3     9    10   ar
     4    10    11   ar
     5    11     8    1
     6     8     2    1
     7     2     3    1
     8     3     4    1
     9     4     5    1
    10     5     1    1
    11     1    21    1
    12    21    22    1
    13    22    23    1
    14    23    24    1
    15    24    25    1
    16    25    26    1
    17    26    27   ar
    18    27    28   ar
    19    28    29   ar
    20    29    30    1
    21    29    31   ar
    22    31    32   ar
    23    25    33    1
    24    33    34   ar
    25    34    35   ar
    26    35    36   ar
    27    36    37    1
    28    36    38   ar
    29    38    39   ar
    30     5     6    1
    31     6     7    1
    32    11    12   ar
    33    12    13   ar
    34    13    17    1
    35    17    18    1
    36    13    14   ar
    37    14    19    1
    38    19    20    1
    39    14     9   ar
    40     7     2    1
    41    32    26   ar
    42    39    33   ar
@<TRIPOS>MOLECULE
*****
 39 42 0 0 0
SMALL
GASTEIGER

@<TRIPOS>ATOM
      1 C         139.9297  140.4234  159.7940 C.3     1  UNL1        0.0722
      2 N         138.8379  139.1595  163.9726 N.3     1  UNL1       -0.2665
      3 C         139.6474  138.2464  163.1002 C.3     1  UNL1        0.0899
      4 C         140.0114  138.6677  161.7074 C.3     1  UNL1        0.0897
      5 N         139.5657  140.0021  161.1869 N.3     1  UNL1       -0.2703
      6 C         138.7562  140.9151  162.0592 C.3     1  UNL1        0.0897
      7 C         138.3923  140.4938  163.4521 C.3     1  UNL1        0.0899
      8 C         138.4739  138.7382  165.3654 C.3     1  UNL1        0.0994
      9 C         139.2794  139.9919  169.0437 C.ar    1  UNL1        0.1752
     10 C         138.5367  139.4248  167.8704 C.ar    1  UNL1        0.0373
     11 C         139.2168  139.3053  166.5388 C.ar    1  UNL1        0.0001
     12 C         140.6396  139.7530  166.3804 C.ar    1  UNL1        0.0373
     13 C         141.3823  140.3201  167.5537 C.ar    1  UNL1        0.1752
     14 C         140.7023  140.4395  168.8854 C.ar    1  UNL1        0.2060
     15 C         137.2711  139.4521  170.6009 C.3     1  UNL1        0.2526
     16 O         138.5993  140.1114  170.3753 O.3     1  UNL1       -0.4683
     17 O         142.8053  140.7678  167.3954 O.3     1  UNL1       -0.4683
     18 C         143.1060  142.1731  166.9660 C.3     1  UNL1        0.2526
     19 O         141.4451  141.0067  170.0587 O.3     1  UNL1       -0.4654
     20 C         141.4629  142.4887  170.2899 C.3     1  UNL1        0.2528
     21 C         140.6645  141.7115  159.5679 C.3     1  UNL1        0.0173
     22 C         142.1350  141.7957  159.8516 C.3     1  UNL1        0.0014
     23 C         142.7901  143.1340  160.0244 C.3     1  UNL1        0.0007
     24 C         142.5514  143.9303  161.2730 C.3     1  UNL1        0.0087
     25 C         142.1744  143.2331  162.5465 C.3     1  UNL1        0.0446
     26 C         143.0658  142.1662  163.1097 C.ar    1  UNL1       -0.0183
     27 C         142.5253  140.7879  163.3514 C.ar    1  UNL1       -0.0017
     28 C         143.4167  139.7210  163.9146 C.ar    1  UNL1        0.0293
     29 C         144.8484  140.0323  164.2361 C.ar    1  UNL1        0.1401
     30 F         145.7397  138.9654  164.7993 F       1  UNL1       -0.2042
     31 C         145.3887  141.4105  163.9943 C.ar    1  UNL1        0.0293
     32 C         144.4974  142.4775  163.4311 C.ar    1  UNL1       -0.0017
     33 C         140.9061  143.6029  163.2569 C.ar    1  UNL1       -0.0183
     34 C         140.7668  143.3424  164.7275 C.ar    1  UNL1       -0.0017
     35 C         139.4986  143.7122  165.4379 C.ar    1  UNL1        0.0293
     36 C         138.3694  144.3425  164.6777 C.ar    1  UNL1        0.1401
     37 F         137.1011  144.7123  165.3881 F       1  UNL1       -0.2042
     38 C         138.5087  144.6030  163.2070 C.ar    1  UNL1        0.0293
     39 C         139.7770  144.2332  162.4967 C.ar    1  UNL1       -0.0017
@<TRIPOS>BOND
     1    15    16    1
     2    16     9    1
     3     9    10   ar
     4    10    11   ar
     5    11     8    1
     6     8     2    1
     7     2     3    1
     8     3     4    1
     9     4     5    1
    10     5     1    1
    11     1    21    1
    12    21    22    1
    13    22    23    1
    14    23    24    1
    15    24    25    1
    16    25    26    1
    17    26    27   ar
    18    27    28   ar
    19    28    29   ar
    20    29    30    1
    21    29    31   ar
    22    31    32   ar
    23    25    33    1
    24    33    34   ar
    25    34    35   ar
    26    35    36   ar
    27    36    37    1
    28    36    38   ar
    29    38    39   ar
    30     5     6    1
    31     6     7    1
    32    11    12   ar
    33    12    13   ar
    34    13    17    1
    35    17    18    1
    36    13    14   ar
    37    14    19    1
    38    19    20    1
    39    14     9   ar
    40     7     2    1
    41    32    26   ar
    42    39    33   ar
@<TRIPOS>MOLECULE
*****
 39 42 0 0 0
SMALL
GASTEIGER

@<TRIPOS>ATOM
      1 C         140.0018  139.0067  162.1489 C.3     1  UNL1        0.0722
      2 N         142.1417  138.1980  158.2737 N.3     1  UNL1       -0.2665
      3 C         142.9046  138.2008  159.5653 C.3     1  UNL1        0.0899
      4 C         142.1913  138.4704  160.8570 C.3     1  UNL1        0.0897
      5 N         140.7151  138.7371  160.8572 N.3     1  UNL1       -0.2703
      6 C         139.9523  138.7343  159.5656 C.3     1  UNL1        0.0897
      7 C         140.6656  138.4647  158.2739 C.3     1  UNL1        0.0899
      8 C         142.8550  137.9284  156.9820 C.3     1  UNL1        0.0994
      9 C         142.4480  134.9971  154.3378 C.ar    1  UNL1        0.1752
     10 C         142.4750  136.3721  154.9366 C.ar    1  UNL1        0.0373
     11 C         142.8281  136.5534  156.3832 C.ar    1  UNL1        0.0001
     12 C         143.1542  135.3597  157.2309 C.ar    1  UNL1        0.0373
     13 C         143.1273  133.9847  156.6320 C.ar    1  UNL1        0.1752
     14 C         142.7742  133.8034  155.1855 C.ar    1  UNL1        0.2060
     15 C         140.8228  135.3988  152.3510 C.3     1  UNL1        0.2526
     16 O         142.0949  134.8159  152.8913 O.3     1  UNL1       -0.4683
     17 O         143.4535  132.7909  157.4797 O.3     1  UNL1       -0.4683
     18 C         144.8737  132.3242  157.6032 C.3     1  UNL1        0.2526
     19 O         142.7473  132.4283  154.5866 O.3     1  UNL1       -0.4654
     20 C         141.5159  131.5807  154.7097 C.3     1  UNL1        0.2528
     21 C         139.3164  137.8872  162.8749 C.3     1  UNL1        0.0173
     22 C         139.7600  137.5066  164.2563 C.3     1  UNL1        0.0014
     23 C         138.8025  137.6086  165.4064 C.3     1  UNL1        0.0007
     24 C         138.1988  138.9343  165.7643 C.3     1  UNL1        0.0087
     25 C         139.0859  140.0944  166.1067 C.3     1  UNL1        0.0446
     26 C         138.9640  141.3817  165.3464 C.ar    1  UNL1       -0.0183
     27 C         139.8112  142.5600  165.7259 C.ar    1  UNL1       -0.0017
     28 C         139.6894  143.8473  164.9656 C.ar    1  UNL1        0.0293
     29 C         138.7202  143.9563  163.8258 C.ar    1  UNL1        0.1401
     30 F         138.5983  145.2436  163.0655 F       1  UNL1       -0.2042
     31 C         137.8730  142.7781  163.4464 C.ar    1  UNL1        0.0293
     32 C         137.9949  141.4908  164.2067 C.ar    1  UNL1       -0.0017
     33 C         140.0949  139.9673  167.2093 C.ar    1  UNL1       -0.0183
     34 C         141.5304  139.6795  166.8828 C.ar    1  UNL1       -0.0017
     35 C         142.5394  139.5523  167.9854 C.ar    1  UNL1        0.0293
     36 C         142.1129  139.7130  169.4146 C.ar    1  UNL1        0.1401
     37 F         143.1219  139.5859  170.5171 F       1  UNL1       -0.2042
     38 C         140.6774  140.0008  169.7411 C.ar    1  UNL1        0.0293
     39 C         139.6684  140.1280  168.6384 C.ar    1  UNL1       -0.0017
@<TRIPOS>BOND
     1    15    16    1
     2    16     9    1
     3     9    10   ar
     4    10    11   ar
     5    11     8    1
     6     8     2    1
     7     2     3    1
     8     3     4    1
     9     4     5    1
    10     5     1    1
    11     1    21    1
    12    21    22    1
    13    22    23    1
    14    23    24    1
    15    24    25    1
    16    25    26    1
    17    26    27   ar
    18    27    28   ar
    19    28    29   ar
    20    29    30    1
    21    29    31   ar
    22    31    32   ar
    23    25    33    1
    24    33    34   ar
    25    34    35   ar
    26    35    36   ar
    27    36    37    1
    28    36    38   ar
    29    38    39   ar
    30     5     6    1
    31     6     7    1
    32    11    12   ar
    33    12    13   ar
    34    13    17    1
    35    17    18    1
    36    13    14   ar
    37    14    19    1
    38    19    20    1
    39    14     9   ar
    40     7     2    1
    41    32    26   ar
    42    39    33   ar
@<TRIPOS>MOLECULE
*****
 39 42 0 0 0
SMALL
GASTEIGER

@<TRIPOS>ATOM
      1 C         140.0678  138.8000  162.0070 C.3     1  UNL1        0.0722
      2 N         142.2737  137.8474  158.2022 N.3     1  UNL1       -0.2665
      3 C         142.9626  137.6973  159.5262 C.3     1  UNL1        0.0899
      4 C         142.2273  138.0149  160.7945 C.3     1  UNL1        0.0897
      5 N         140.8031  138.4825  160.7388 N.3     1  UNL1       -0.2703
      6 C         140.1142  138.6325  159.4148 C.3     1  UNL1        0.0897
      7 C         140.8495  138.3150  158.1465 C.3     1  UNL1        0.0899
      8 C         143.0090  137.5298  156.9340 C.3     1  UNL1        0.0994
      9 C         142.5800  133.6358  156.2993 C.ar    1  UNL1        0.1752
     10 C         142.8229  134.9393  157.0007 C.ar    1  UNL1        0.0373
     11 C         142.7661  136.2263  156.2325 C.ar    1  UNL1        0.0001
     12 C         142.4664  136.2100  154.7628 C.ar    1  UNL1        0.0373
     13 C         142.2235  134.9066  154.0614 C.ar    1  UNL1        0.1752
     14 C         142.2803  133.6195  154.8297 C.ar    1  UNL1        0.2060
     15 C         143.9188  131.5732  157.1378 C.3     1  UNL1        0.2526
     16 O         142.6368  132.3487  157.0675 O.3     1  UNL1       -0.4683
     17 O         141.9238  134.8902  152.5917 O.3     1  UNL1       -0.4683
     18 C         140.6796  135.5476  152.0726 C.3     1  UNL1        0.2526
     19 O         142.0374  132.3160  154.1282 O.3     1  UNL1       -0.4654
     20 C         143.1688  131.6137  153.4376 C.3     1  UNL1        0.2528
     21 C         140.1897  137.8893  163.1927 C.3     1  UNL1        0.0173
     22 C         138.9577  137.4259  163.9123 C.3     1  UNL1        0.0014
     23 C         138.7724  137.7474  165.3656 C.3     1  UNL1        0.0007
     24 C         138.2086  139.0761  165.7739 C.3     1  UNL1        0.0087
     25 C         139.1301  140.1982  166.1504 C.3     1  UNL1        0.0446
     26 C         139.0593  141.5049  165.4173 C.ar    1  UNL1       -0.0183
     27 C         139.9285  142.6513  165.8423 C.ar    1  UNL1       -0.0017
     28 C         139.8578  143.9580  165.1092 C.ar    1  UNL1        0.0293
     29 C         138.9179  144.1184  163.9512 C.ar    1  UNL1        0.1401
     30 F         138.8471  145.4252  163.2181 F       1  UNL1       -0.2042
     31 C         138.0487  142.9721  163.5263 C.ar    1  UNL1        0.0293
     32 C         138.1195  141.6654  164.2594 C.ar    1  UNL1       -0.0017
     33 C         140.1223  140.0135  167.2601 C.ar    1  UNL1       -0.0183
     34 C         139.6902  140.1760  168.6873 C.ar    1  UNL1       -0.0017
     35 C         140.6824  139.9913  169.7970 C.ar    1  UNL1        0.0293
     36 C         142.1068  139.6442  169.4795 C.ar    1  UNL1        0.1401
     37 F         143.0990  139.4595  170.5892 F       1  UNL1       -0.2042
     38 C         142.5389  139.4817  168.0523 C.ar    1  UNL1        0.0293
     39 C         141.5466  139.6663  166.9426 C.ar    1  UNL1       -0.0017
@<TRIPOS>BOND
     1    15    16    1
     2    16     9    1
     3     9    10   ar
     4    10    11   ar
     5    11     8    1
     6     8     2    1
     7     2     3    1
     8     3     4    1
     9     4     5    1
    10     5     1    1
    11     1    21    1
    12    21    22    1
    13    22    23    1
    14    23    24    1
    15    24    25    1
    16    25    26    1
    17    26    27   ar
    18    27    28   ar
    19    28    29   ar
    20    29    30    1
    21    29    31   ar
    22    31    32   ar
    23    25    33    1
    24    33    34   ar
    25    34    35   ar
    26    35    36   ar
    27    36    37    1
    28    36    38   ar
    29    38    39   ar
    30     5     6    1
    31     6     7    1
    32    11    12   ar
    33    12    13   ar
    34    13    17    1
    35    17    18    1
    36    13    14   ar
    37    14    19    1
    38    19    20    1
    39    14     9   ar
    40     7     2    1
    41    32    26   ar
    42    39    33   ar
@<TRIPOS>MOLECULE
*****
 39 42 0 0 0
SMALL
GASTEIGER

@<TRIPOS>ATOM
      1 C         138.8024  142.9303  159.5083 C.3     1  UNL1        0.0722
      2 N         139.2197  143.7923  163.9052 N.3     1  UNL1       -0.2665
      3 C         140.1724  144.4114  162.9258 C.3     1  UNL1        0.0899
      4 C         140.0333  144.1241  161.4602 C.3     1  UNL1        0.0897
      5 N         138.9415  143.2176  160.9739 N.3     1  UNL1       -0.2703
      6 C         137.9889  142.5985  161.9533 C.3     1  UNL1        0.0897
      7 C         138.1280  142.8859  163.4189 C.3     1  UNL1        0.0899
      8 C         139.3588  144.0797  165.3708 C.3     1  UNL1        0.0994
      9 C         140.9864  142.3726  168.5625 C.ar    1  UNL1        0.1752
     10 C         140.0927  143.2262  167.7124 C.ar    1  UNL1        0.0373
     11 C         140.2525  143.2260  166.2209 C.ar    1  UNL1        0.0001
     12 C         141.3059  142.3722  165.5796 C.ar    1  UNL1        0.0373
     13 C         142.1995  141.5186  166.4297 C.ar    1  UNL1        0.1752
     14 C         142.0397  141.5189  167.9212 C.ar    1  UNL1        0.2060
     15 C         139.6869  143.1155  170.6861 C.3     1  UNL1        0.2526
     16 O         140.8266  142.3729  170.0540 O.3     1  UNL1       -0.4683
     17 O         143.2530  140.6648  165.7884 O.3     1  UNL1       -0.4683
     18 C         143.0709  139.1777  165.7150 C.3     1  UNL1        0.2526
     19 O         142.9335  140.6652  168.7713 O.3     1  UNL1       -0.4654
     20 C         142.4177  139.3788  169.3451 C.3     1  UNL1        0.2528
     21 C         138.3876  141.5642  159.0479 C.3     1  UNL1        0.0173
     22 C         139.1862  140.3612  159.4543 C.3     1  UNL1        0.0014
     23 C         138.5537  139.2887  160.2906 C.3     1  UNL1        0.0007
     24 C         139.4129  138.3717  161.1097 C.3     1  UNL1        0.0087
     25 C         140.0720  138.8778  162.3584 C.3     1  UNL1        0.0446
     26 C         141.4256  139.5199  162.2846 C.ar    1  UNL1       -0.0183
     27 C         142.6544  138.6679  162.1649 C.ar    1  UNL1       -0.0017
     28 C         144.0080  139.3101  162.0911 C.ar    1  UNL1        0.0293
     29 C         144.1328  140.8042  162.1369 C.ar    1  UNL1        0.1401
     30 F         145.4864  141.4464  162.0631 F       1  UNL1       -0.2042
     31 C         142.9040  141.6561  162.2565 C.ar    1  UNL1        0.0293
     32 C         141.5504  141.0140  162.3303 C.ar    1  UNL1       -0.0017
     33 C         139.3776  138.7418  163.6810 C.ar    1  UNL1       -0.0183
     34 C         139.1481  137.3820  164.2713 C.ar    1  UNL1       -0.0017
     35 C         138.4537  137.2460  165.5938 C.ar    1  UNL1        0.0293
     36 C         137.9887  138.4697  166.3262 C.ar    1  UNL1        0.1401
     37 F         137.2942  138.3337  167.6488 F       1  UNL1       -0.2042
     38 C         138.2181  139.8295  165.7360 C.ar    1  UNL1        0.0293
     39 C         138.9126  139.9655  164.4133 C.ar    1  UNL1       -0.0017
@<TRIPOS>BOND
     1    15    16    1
     2    16     9    1
     3     9    10   ar
     4    10    11   ar
     5    11     8    1
     6     8     2    1
     7     2     3    1
     8     3     4    1
     9     4     5    1
    10     5     1    1
    11     1    21    1
    12    21    22    1
    13    22    23    1
    14    23    24    1
    15    24    25    1
    16    25    26    1
    17    26    27   ar
    18    27    28   ar
    19    28    29   ar
    20    29    30    1
    21    29    31   ar
    22    31    32   ar
    23    25    33    1
    24    33    34   ar
    25    34    35   ar
    26    35    36   ar
    27    36    37    1
    28    36    38   ar
    29    38    39   ar
    30     5     6    1
    31     6     7    1
    32    11    12   ar
    33    12    13   ar
    34    13    17    1
    35    17    18    1
    36    13    14   ar
    37    14    19    1
    38    19    20    1
    39    14     9   ar
    40     7     2    1
    41    32    26   ar
    42    39    33   ar
@<TRIPOS>MOLECULE
*****
 39 42 0 0 0
SMALL
GASTEIGER

@<TRIPOS>ATOM
      1 C         140.7348  137.6146  163.2824 C.3     1  UNL1        0.0722
      2 N         141.7575  141.8353  162.1032 N.3     1  UNL1       -0.2665
      3 C         140.4162  141.2626  161.7522 C.3     1  UNL1        0.0899
      4 C         140.0753  139.8557  162.1453 C.3     1  UNL1        0.0897
      5 N         141.0757  139.0215  162.8893 N.3     1  UNL1       -0.2703
      6 C         142.4169  139.5942  163.2402 C.3     1  UNL1        0.0897
      7 C         142.7578  141.0011  162.8471 C.3     1  UNL1        0.0899
      8 C         142.0984  143.2421  161.7101 C.3     1  UNL1        0.0994
      9 C         141.5761  145.1088  158.2470 C.ar    1  UNL1        0.1752
     10 C         141.4416  144.7467  159.6964 C.ar    1  UNL1        0.0373
     11 C         142.2330  143.6042  160.2606 C.ar    1  UNL1        0.0001
     12 C         143.1589  142.8238  159.3755 C.ar    1  UNL1        0.0373
     13 C         143.2935  143.1859  157.9261 C.ar    1  UNL1        0.1752
     14 C         142.5021  144.3284  157.3619 C.ar    1  UNL1        0.2060
     15 C         139.6931  145.9886  156.6882 C.3     1  UNL1        0.2526
     16 O         140.7847  146.2513  157.6828 O.3     1  UNL1       -0.4683
     17 O         144.2195  142.4055  157.0409 O.3     1  UNL1       -0.4683
     18 C         145.6584  142.2325  157.4276 C.3     1  UNL1        0.2526
     19 O         142.6367  144.6904  155.9124 O.3     1  UNL1       -0.4654
     20 C         142.0624  143.7910  154.8583 C.3     1  UNL1        0.2528
     21 C         140.3782  137.2988  164.7048 C.3     1  UNL1        0.0173
     22 C         138.9404  137.1308  165.0979 C.3     1  UNL1        0.0014
     23 C         138.3321  138.0404  166.1239 C.3     1  UNL1        0.0007
     24 C         138.1198  139.4913  165.8081 C.3     1  UNL1        0.0087
     25 C         139.1763  140.4972  166.1573 C.3     1  UNL1        0.0446
     26 C         140.1589  140.2037  167.2519 C.ar    1  UNL1       -0.0183
     27 C         139.7393  140.3197  168.6874 C.ar    1  UNL1       -0.0017
     28 C         140.7220  140.0262  169.7821 C.ar    1  UNL1        0.0293
     29 C         142.1242  139.6165  169.4412 C.ar    1  UNL1        0.1401
     30 F         143.1068  139.3230  170.5359 F       1  UNL1       -0.2042
     31 C         142.5437  139.5005  168.0058 C.ar    1  UNL1        0.0293
     32 C         141.5611  139.7940  166.9112 C.ar    1  UNL1       -0.0017
     33 C         139.2502  141.7968  165.4117 C.ar    1  UNL1       -0.0183
     34 C         138.1044  142.2313  164.5466 C.ar    1  UNL1       -0.0017
     35 C         138.1783  143.5308  163.8011 C.ar    1  UNL1        0.0293
     36 C         139.3980  144.3958  163.9206 C.ar    1  UNL1        0.1401
     37 F         139.4718  145.6953  163.1751 F       1  UNL1       -0.2042
     38 C         140.5437  143.9613  164.7857 C.ar    1  UNL1        0.0293
     39 C         140.4698  142.6617  165.5313 C.ar    1  UNL1       -0.0017
@<TRIPOS>BOND
     1    15    16    1
     2    16     9    1
     3     9    10   ar
     4    10    11   ar
     5    11     8    1
     6     8     2    1
     7     2     3    1
     8     3     4    1
     9     4     5    1
    10     5     1    1
    11     1    21    1
    12    21    22    1
    13    22    23    1
    14    23    24    1
    15    24    25    1
    16    25    26    1
    17    26    27   ar
    18    27    28   ar
    19    28    29   ar
    20    29    30    1
    21    29    31   ar
    22    31    32   ar
    23    25    33    1
    24    33    34   ar
    25    34    35   ar
    26    35    36   ar
    27    36    37    1
    28    36    38   ar
    29    38    39   ar
    30     5     6    1
    31     6     7    1
    32    11    12   ar
    33    12    13   ar
    34    13    17    1
    35    17    18    1
    36    13    14   ar
    37    14    19    1
    38    19    20    1
    39    14     9   ar
    40     7     2    1
    41    32    26   ar
    42    39    33   ar
@<TRIPOS>MOLECULE
*****
 39 42 0 0 0
SMALL
GASTEIGER

@<TRIPOS>ATOM
      1 C         139.1347  145.0412  163.7872 C.3     1  UNL1        0.0722
      2 N         142.9812  143.6125  161.9399 N.3     1  UNL1       -0.2665
      3 C         143.0072  144.3737  163.2322 C.3     1  UNL1        0.0899
      4 C         141.7250  144.8500  163.8480 C.3     1  UNL1        0.0897
      5 N         140.4169  144.5650  163.1715 N.3     1  UNL1       -0.2703
      6 C         140.3909  143.8038  161.8792 C.3     1  UNL1        0.0897
      7 C         141.6731  143.3276  161.2634 C.3     1  UNL1        0.0899
      8 C         144.2634  143.1363  161.3241 C.3     1  UNL1        0.0994
      9 C         143.9073  139.7956  159.2114 C.ar    1  UNL1        0.1752
     10 C         143.9402  140.7384  160.3776 C.ar    1  UNL1        0.0373
     11 C         144.2305  142.1935  160.1578 C.ar    1  UNL1        0.0001
     12 C         144.4879  142.7059  158.7717 C.ar    1  UNL1        0.0373
     13 C         144.4550  141.7631  157.6055 C.ar    1  UNL1        0.1752
     14 C         144.1647  140.3080  157.8254 C.ar    1  UNL1        0.2060
     15 C         142.2270  137.8973  159.7797 C.3     1  UNL1        0.2526
     16 O         143.6170  138.3405  159.4313 O.3     1  UNL1       -0.4683
     17 O         144.7124  142.2755  156.2194 O.3     1  UNL1       -0.4683
     18 C         143.5706  142.7542  155.3727 C.3     1  UNL1        0.2526
     19 O         144.1318  139.3652  156.6591 O.3     1  UNL1       -0.4654
     20 C         142.8300  139.0560  155.9812 C.3     1  UNL1        0.2528
     21 C         138.4594  144.2186  164.8443 C.3     1  UNL1        0.0173
     22 C         137.5484  143.0936  164.4512 C.3     1  UNL1        0.0014
     23 C         138.1215  141.7539  164.0952 C.3     1  UNL1        0.0007
     24 C         138.3463  140.7262  165.1645 C.3     1  UNL1        0.0087
     25 C         139.6904  140.6073  165.8197 C.3     1  UNL1        0.0446
     26 C         139.8687  141.0304  167.2477 C.ar    1  UNL1       -0.0183
     27 C         139.5007  140.0927  168.3592 C.ar    1  UNL1       -0.0017
     28 C         139.6790  140.5158  169.7872 C.ar    1  UNL1        0.0293
     29 C         140.2253  141.8765  170.1037 C.ar    1  UNL1        0.1401
     30 F         140.4037  142.2996  171.5317 F       1  UNL1       -0.2042
     31 C         140.5933  142.8141  168.9922 C.ar    1  UNL1        0.0293
     32 C         140.4150  142.3910  167.5642 C.ar    1  UNL1       -0.0017
     33 C         140.8562  140.0653  165.0469 C.ar    1  UNL1       -0.0183
     34 C         141.9770  140.9766  164.6429 C.ar    1  UNL1       -0.0017
     35 C         143.1428  140.4347  163.8701 C.ar    1  UNL1        0.0293
     36 C         143.1878  138.9814  163.5013 C.ar    1  UNL1        0.1401
     37 F         144.3535  138.4394  162.7285 F       1  UNL1       -0.2042
     38 C         142.0669  138.0701  163.9052 C.ar    1  UNL1        0.0293
     39 C         140.9011  138.6121  164.6781 C.ar    1  UNL1       -0.0017
@<TRIPOS>BOND
     1    15    16    1
     2    16     9    1
     3     9    10   ar
     4    10    11   ar
     5    11     8    1
     6     8     2    1
     7     2     3    1
     8     3     4    1
     9     4     5    1
    10     5     1    1
    11     1    21    1
    12    21    22    1
    13    22    23    1
    14    23    24    1
    15    24    25    1
    16    25    26    1
    17    26    27   ar
    18    27    28   ar
    19    28    29   ar
    20    29    30    1
    21    29    31   ar
    22    31    32   ar
    23    25    33    1
    24    33    34   ar
    25    34    35   ar
    26    35    36   ar
    27    36    37    1
    28    36    38   ar
    29    38    39   ar
    30     5     6    1
    31     6     7    1
    32    11    12   ar
    33    12    13   ar
    34    13    17    1
    35    17    18    1
    36    13    14   ar
    37    14    19    1
    38    19    20    1
    39    14     9   ar
    40     7     2    1
    41    32    26   ar
    42    39    33   ar
