@<TRIPOS>MOLECULE
*****
 29 32 0 0 0
SMALL
GASTEIGER

@<TRIPOS>ATOM
      1 N         141.4991  144.1373  160.8198 N.ar    1  UNL1       -0.2680
      2 C         140.9714  145.2871  160.0139 C.ar    1  UNL1        0.3519
      3 O         141.5567  145.8100  158.7356 O.2     1  UNL1       -0.2444
      4 N         139.7558  145.8223  160.7108 N.ar    1  UNL1       -0.1736
      5 C         139.5321  145.0032  161.9474 C.ar    1  UNL1        0.1613
      6 N         138.4865  145.0712  163.0207 N.ar    1  UNL1       -0.3361
      7 C         138.5184  144.0976  164.1614 C.ar    1  UNL1        0.0735
      8 C         139.5958  143.0562  164.2287 C.ar    1  UNL1        0.0186
      9 C         140.6413  142.9883  163.1554 C.ar    1  UNL1        0.0219
     10 C         140.6095  143.9618  162.0147 C.ar    1  UNL1        0.0984
     11 H         137.7793  145.7547  162.9765 H       1  UNL1        0.1674
     12 C         139.6276  142.0826  165.3695 C.ar    1  UNL1        0.0014
     13 C         140.2608  142.4737  166.6718 C.ar    1  UNL1        0.0000
     14 C         140.2926  141.5002  167.8126 C.ar    1  UNL1       -0.0001
     15 C         139.6912  140.1356  167.6509 C.ar    1  UNL1        0.0039
     16 C         139.0579  139.7445  166.3485 C.ar    1  UNL1        0.0714
     17 C         139.0262  140.7180  165.2079 C.ar    1  UNL1        0.0039
     18 C         138.4565  138.3799  166.1869 C.3     1  UNL1        0.4186
     19 F         137.8551  137.0153  166.0253 F       1  UNL1       -0.1659
     20 F         139.5602  138.0053  165.2427 F       1  UNL1       -0.1659
     21 F         137.3528  138.7545  167.1311 F       1  UNL1       -0.1659
     22 C         142.7046  143.3083  160.4888 C.3     1  UNL1        0.1954
     23 O         144.5418  143.9891  162.1950 O.2     1  UNL1       -0.2730
     24 C         143.6777  142.9356  161.5676 C.2     1  UNL1        0.2457
     25 N         143.7868  141.5093  162.0193 N.am    1  UNL1       -0.3044
     26 H         143.2198  140.8179  161.6075 H       1  UNL1        0.1494
     27 C         144.7600  141.1366  163.0981 C.3     1  UNL1        0.0717
     28 C         145.2271  140.1756  164.1510 C.3     1  UNL1        0.0213
     29 C         145.9786  141.4519  163.9141 C.3     1  UNL1        0.0213
@<TRIPOS>BOND
     1    23    24    2
     2    24    22    1
     3    22     1    1
     4     1     2   ar
     5     2     3    2
     6     2     4   ar
     7     4     5   ar
     8     5     6   ar
     9     6     7   ar
    10     7     8   ar
    11     8    12    1
    12    12    13   ar
    13    13    14   ar
    14    14    15   ar
    15    15    16   ar
    16    16    18    1
    17    18    19    1
    18    18    20    1
    19    18    21    1
    20    16    17   ar
    21     8     9   ar
    22     9    10   ar
    23    24    25   am
    24    25    27    1
    25    27    28    1
    26    28    29    1
    27    10     1   ar
    28    29    27    1
    29    10     5    1
    30    17    12   ar
    31     6    11    1
    32    25    26    1
@<TRIPOS>MOLECULE
*****
 29 32 0 0 0
SMALL
GASTEIGER

@<TRIPOS>ATOM
      1 N         138.0872  140.3360  162.8949 N.ar    1  UNL1       -0.2680
      2 C         137.9333  139.1072  162.0486 C.ar    1  UNL1        0.3519
      3 O         137.0281  138.9620  160.8613 O.2     1  UNL1       -0.2444
      4 N         138.8435  138.0491  162.5980 N.ar    1  UNL1       -0.1736
      5 C         139.5600  138.6240  163.7839 C.ar    1  UNL1        0.1613
      6 N         140.5776  138.0430  164.7203 N.ar    1  UNL1       -0.3361
      7 C         141.1277  138.8755  165.8402 C.ar    1  UNL1        0.0735
      8 C         140.6603  140.2889  166.0237 C.ar    1  UNL1        0.0186
      9 C         139.6427  140.8699  165.0873 C.ar    1  UNL1        0.0219
     10 C         139.0925  140.0374  163.9674 C.ar    1  UNL1        0.0984
     11 H         140.8844  137.1153  164.5998 H       1  UNL1        0.1674
     12 C         141.2105  141.1214  167.1437 C.ar    1  UNL1        0.0014
     13 C         142.6868  141.3690  167.2389 C.ar    1  UNL1        0.0000
     14 C         143.2370  142.2015  168.3589 C.ar    1  UNL1       -0.0001
     15 C         142.3108  142.7864  169.3836 C.ar    1  UNL1        0.0039
     16 C         140.8344  142.5388  169.2883 C.ar    1  UNL1        0.0714
     17 C         140.2843  141.7063  168.1684 C.ar    1  UNL1        0.0039
     18 C         139.9082  143.1237  170.3131 C.3     1  UNL1        0.4186
     19 F         138.9820  143.7086  171.3378 F       1  UNL1       -0.1659
     20 F         140.6488  144.4260  170.2391 F       1  UNL1       -0.1659
     21 F         139.1676  141.8214  170.3870 F       1  UNL1       -0.1659
     22 C         137.3629  141.6355  162.7026 C.3     1  UNL1        0.1954
     23 O         138.1258  143.1202  160.7117 O.2     1  UNL1       -0.2730
     24 C         138.0993  142.8350  162.1842 C.2     1  UNL1        0.2457
     25 N         138.8091  143.7494  163.1381 N.am    1  UNL1       -0.3044
     26 H         138.7917  143.5622  164.1045 H       1  UNL1        0.1494
     27 C         139.5455  144.9489  162.6197 C.3     1  UNL1        0.0717
     28 C         140.8001  145.7669  162.5355 C.3     1  UNL1        0.0213
     29 C         139.5664  146.2088  161.8058 C.3     1  UNL1        0.0213
@<TRIPOS>BOND
     1    23    24    2
     2    24    22    1
     3    22     1    1
     4     1     2   ar
     5     2     3    2
     6     2     4   ar
     7     4     5   ar
     8     5     6   ar
     9     6     7   ar
    10     7     8   ar
    11     8    12    1
    12    12    13   ar
    13    13    14   ar
    14    14    15   ar
    15    15    16   ar
    16    16    18    1
    17    18    19    1
    18    18    20    1
    19    18    21    1
    20    16    17   ar
    21     8     9   ar
    22     9    10   ar
    23    24    25   am
    24    25    27    1
    25    27    28    1
    26    28    29    1
    27    10     1   ar
    28    29    27    1
    29    10     5    1
    30    17    12   ar
    31     6    11    1
    32    25    26    1
@<TRIPOS>MOLECULE
*****
 29 32 0 0 0
SMALL
GASTEIGER

@<TRIPOS>ATOM
      1 N         139.0360  139.8472  168.4217 N.ar    1  UNL1       -0.2680
      2 C         138.6985  140.2394  169.8296 C.ar    1  UNL1        0.3519
      3 O         137.4815  139.8131  170.5959 O.2     1  UNL1       -0.2444
      4 N         139.7916  141.1326  170.3366 N.ar    1  UNL1       -0.1736
      5 C         140.8048  141.2925  169.2421 C.ar    1  UNL1        0.1613
      6 N         142.0922  142.0589  169.1703 N.ar    1  UNL1       -0.3361
      7 C         142.9126  142.0308  167.9149 C.ar    1  UNL1        0.0735
      8 C         142.4456  141.2363  166.7313 C.ar    1  UNL1        0.0186
      9 C         141.1582  140.4700  166.8032 C.ar    1  UNL1        0.0219
     10 C         140.3378  140.4981  168.0586 C.ar    1  UNL1        0.0984
     11 H         142.3987  142.5803  169.9471 H       1  UNL1        0.1674
     12 C         143.2661  141.2082  165.4759 C.ar    1  UNL1        0.0014
     13 C         144.1762  142.3549  165.1489 C.ar    1  UNL1        0.0000
     14 C         144.9967  142.3268  163.8934 C.ar    1  UNL1       -0.0001
     15 C         144.9071  141.1520  162.9651 C.ar    1  UNL1        0.0039
     16 C         143.9970  140.0053  163.2921 C.ar    1  UNL1        0.0714
     17 C         143.1765  140.0335  164.5475 C.ar    1  UNL1        0.0039
     18 C         143.9074  138.8306  162.3637 C.3     1  UNL1        0.4186
     19 F         143.8178  137.6558  161.4353 F       1  UNL1       -0.1659
     20 F         144.6264  139.6126  161.3048 F       1  UNL1       -0.1659
     21 F         143.1883  138.0486  163.4227 F       1  UNL1       -0.1659
     22 C         138.2158  138.9599  167.5328 C.3     1  UNL1        0.1954
     23 O         138.0581  140.2617  165.2900 O.2     1  UNL1       -0.2730
     24 C         138.4003  139.0116  166.0452 C.2     1  UNL1        0.2457
     25 N         138.9271  137.8134  165.3126 N.am    1  UNL1       -0.3044
     26 H         139.1517  136.9929  165.8082 H       1  UNL1        0.1494
     27 C         139.1116  137.8651  163.8249 C.3     1  UNL1        0.0717
     28 C         138.5324  138.0038  162.4481 C.3     1  UNL1        0.0213
     29 C         140.0101  137.8162  162.6248 C.3     1  UNL1        0.0213
@<TRIPOS>BOND
     1    23    24    2
     2    24    22    1
     3    22     1    1
     4     1     2   ar
     5     2     3    2
     6     2     4   ar
     7     4     5   ar
     8     5     6   ar
     9     6     7   ar
    10     7     8   ar
    11     8    12    1
    12    12    13   ar
    13    13    14   ar
    14    14    15   ar
    15    15    16   ar
    16    16    18    1
    17    18    19    1
    18    18    20    1
    19    18    21    1
    20    16    17   ar
    21     8     9   ar
    22     9    10   ar
    23    24    25   am
    24    25    27    1
    25    27    28    1
    26    28    29    1
    27    10     1   ar
    28    29    27    1
    29    10     5    1
    30    17    12   ar
    31     6    11    1
    32    25    26    1
@<TRIPOS>MOLECULE
*****
 29 32 0 0 0
SMALL
GASTEIGER

@<TRIPOS>ATOM
      1 N         142.6320  138.6075  163.0013 N.ar    1  UNL1       -0.2680
      2 C         142.0452  137.8446  161.8508 C.ar    1  UNL1        0.3519
      3 O         142.7583  137.4715  160.5850 O.2     1  UNL1       -0.2444
      4 N         140.6202  137.5202  162.1885 N.ar    1  UNL1       -0.1736
      5 C         140.3262  138.0826  163.5476 C.ar    1  UNL1        0.1613
      6 N         139.0870  138.0697  164.3927 N.ar    1  UNL1       -0.3361
      7 C         139.0912  138.7287  165.7401 C.ar    1  UNL1        0.0735
      8 C         140.3346  139.4007  166.2425 C.ar    1  UNL1        0.0186
      9 C         141.5738  139.4137  165.3974 C.ar    1  UNL1        0.0219
     10 C         141.5696  138.7546  164.0500 C.ar    1  UNL1        0.0984
     11 H         138.2709  137.6286  164.0629 H       1  UNL1        0.1674
     12 C         140.3387  140.0598  167.5900 C.ar    1  UNL1        0.0014
     13 C         139.1350  139.9567  168.4790 C.ar    1  UNL1        0.0000
     14 C         139.1392  140.6157  169.8265 C.ar    1  UNL1       -0.0001
     15 C         140.3471  141.3779  170.2849 C.ar    1  UNL1        0.0039
     16 C         141.5508  141.4810  169.3958 C.ar    1  UNL1        0.0714
     17 C         141.5466  140.8219  168.0484 C.ar    1  UNL1        0.0039
     18 C         142.7587  142.2432  169.8542 C.3     1  UNL1        0.4186
     19 F         143.9666  143.0053  170.3125 F       1  UNL1       -0.1659
     20 F         141.9522  143.5077  169.8768 F       1  UNL1       -0.1659
     21 F         143.5652  140.9786  169.8316 F       1  UNL1       -0.1659
     22 C         144.0349  139.1313  163.0880 C.3     1  UNL1        0.1954
     23 O         145.6563  141.1296  163.4459 O.2     1  UNL1       -0.2730
     24 C         144.2811  140.6097  163.1478 C.2     1  UNL1        0.2457
     25 N         143.1523  141.5684  162.9095 N.am    1  UNL1       -0.3044
     26 H         142.2498  141.2272  162.7139 H       1  UNL1        0.1494
     27 C         143.3987  143.0468  162.9693 C.3     1  UNL1        0.0717
     28 C         142.9866  144.4150  163.4258 C.3     1  UNL1        0.0213
     29 C         144.2373  144.2394  162.6165 C.3     1  UNL1        0.0213
@<TRIPOS>BOND
     1    23    24    2
     2    24    22    1
     3    22     1    1
     4     1     2   ar
     5     2     3    2
     6     2     4   ar
     7     4     5   ar
     8     5     6   ar
     9     6     7   ar
    10     7     8   ar
    11     8    12    1
    12    12    13   ar
    13    13    14   ar
    14    14    15   ar
    15    15    16   ar
    16    16    18    1
    17    18    19    1
    18    18    20    1
    19    18    21    1
    20    16    17   ar
    21     8     9   ar
    22     9    10   ar
    23    24    25   am
    24    25    27    1
    25    27    28    1
    26    28    29    1
    27    10     1   ar
    28    29    27    1
    29    10     5    1
    30    17    12   ar
    31     6    11    1
    32    25    26    1
@<TRIPOS>MOLECULE
*****
 29 32 0 0 0
SMALL
GASTEIGER

@<TRIPOS>ATOM
      1 N         138.7686  139.5898  168.5339 N.ar    1  UNL1       -0.2680
      2 C         138.4480  139.8668  169.9729 C.ar    1  UNL1        0.3519
      3 O         137.1659  139.5246  170.6722 O.2     1  UNL1       -0.2444
      4 N         139.6347  140.5460  170.5896 N.ar    1  UNL1       -0.1736
      5 C         140.6886  140.6889  169.5319 C.ar    1  UNL1        0.1613
      6 N         142.0666  141.2808  169.5615 N.ar    1  UNL1       -0.3361
      7 C         142.9092  141.2816  168.3206 C.ar    1  UNL1        0.0735
      8 C         142.3739  140.6907  167.0501 C.ar    1  UNL1        0.0186
      9 C         140.9960  140.0988  167.0205 C.ar    1  UNL1        0.0219
     10 C         140.1533  140.0979  168.2614 C.ar    1  UNL1        0.0984
     11 H         142.4179  141.6686  170.3954 H       1  UNL1        0.1674
     12 C         143.2167  140.6916  165.8091 C.ar    1  UNL1        0.0014
     13 C         143.8123  139.4101  165.3061 C.ar    1  UNL1        0.0000
     14 C         144.6551  139.4110  164.0652 C.ar    1  UNL1       -0.0001
     15 C         144.9021  140.6934  163.3273 C.ar    1  UNL1        0.0039
     16 C         144.3063  141.9749  163.8304 C.ar    1  UNL1        0.0714
     17 C         143.4637  141.9739  165.0713 C.ar    1  UNL1        0.0039
     18 C         144.5534  143.2573  163.0925 C.3     1  UNL1        0.4186
     19 F         144.8004  144.5397  162.3546 F       1  UNL1       -0.1659
     20 F         144.1857  144.0351  164.3212 F       1  UNL1       -0.1659
     21 F         144.9210  142.4794  161.8637 F       1  UNL1       -0.1659
     22 C         137.8633  138.9220  167.5417 C.3     1  UNL1        0.1954
     23 O         137.9707  140.2076  165.2865 O.2     1  UNL1       -0.2730
     24 C         138.1982  138.9551  166.0800 C.2     1  UNL1        0.2457
     25 N         138.7607  137.7357  165.4116 N.am    1  UNL1       -0.3044
     26 H         138.9101  136.9137  165.9324 H       1  UNL1        0.1494
     27 C         139.0957  137.7688  163.9499 C.3     1  UNL1        0.0717
     28 C         138.6695  137.9520  162.5233 C.3     1  UNL1        0.0213
     29 C         140.1018  137.6430  162.8445 C.3     1  UNL1        0.0213
@<TRIPOS>BOND
     1    23    24    2
     2    24    22    1
     3    22     1    1
     4     1     2   ar
     5     2     3    2
     6     2     4   ar
     7     4     5   ar
     8     5     6   ar
     9     6     7   ar
    10     7     8   ar
    11     8    12    1
    12    12    13   ar
    13    13    14   ar
    14    14    15   ar
    15    15    16   ar
    16    16    18    1
    17    18    19    1
    18    18    20    1
    19    18    21    1
    20    16    17   ar
    21     8     9   ar
    22     9    10   ar
    23    24    25   am
    24    25    27    1
    25    27    28    1
    26    28    29    1
    27    10     1   ar
    28    29    27    1
    29    10     5    1
    30    17    12   ar
    31     6    11    1
    32    25    26    1
@<TRIPOS>MOLECULE
*****
 29 32 0 0 0
SMALL
GASTEIGER

@<TRIPOS>ATOM
      1 N         142.8932  143.2631  161.6205 N.ar    1  UNL1       -0.2680
      2 C         143.6222  142.8681  160.3706 C.ar    1  UNL1        0.3519
      3 O         143.5838  143.5967  159.0599 O.2     1  UNL1       -0.2444
      4 N         144.3963  141.6166  160.6613 N.ar    1  UNL1       -0.1736
      5 C         144.1457  141.2382  162.0910 C.ar    1  UNL1        0.1613
      6 N         144.6434  140.0984  162.9296 N.ar    1  UNL1       -0.3361
      7 C         144.2121  139.9763  164.3610 C.ar    1  UNL1        0.0735
      8 C         143.2831  140.9939  164.9538 C.ar    1  UNL1        0.0186
      9 C         142.7854  142.1336  164.1153 C.ar    1  UNL1        0.0219
     10 C         143.2167  142.2558  162.6838 C.ar    1  UNL1        0.0984
     11 H         145.2531  139.4305  162.5404 H       1  UNL1        0.1674
     12 C         142.8518  140.8717  166.3853 C.ar    1  UNL1        0.0014
     13 C         142.9482  139.5497  167.0874 C.ar    1  UNL1        0.0000
     14 C         142.5169  139.4275  168.5189 C.ar    1  UNL1       -0.0001
     15 C         141.9892  140.6273  169.2483 C.ar    1  UNL1        0.0039
     16 C         141.8928  141.9494  168.5461 C.ar    1  UNL1        0.0714
     17 C         142.3241  142.0715  167.1147 C.ar    1  UNL1        0.0039
     18 C         141.3652  143.1492  169.2754 C.3     1  UNL1        0.4186
     19 F         140.8375  144.3491  170.0048 F       1  UNL1       -0.1659
     20 F         140.2531  143.2678  168.2758 F       1  UNL1       -0.1659
     21 F         142.4773  143.0307  170.2750 F       1  UNL1       -0.1659
     22 C         141.9978  144.4560  161.7794 C.3     1  UNL1        0.1954
     23 O         139.5310  143.6441  161.8548 O.2     1  UNL1       -0.2730
     24 C         140.6955  144.3241  162.5118 C.2     1  UNL1        0.2457
     25 N         140.5574  144.8722  163.9012 N.am    1  UNL1       -0.3044
     26 H         141.3217  145.3186  164.3325 H       1  UNL1        0.1494
     27 C         139.2551  144.7403  164.6336 C.3     1  UNL1        0.0717
     28 C         137.8645  144.1846  164.7213 C.3     1  UNL1        0.0213
     29 C         138.3897  145.0674  165.8144 C.3     1  UNL1        0.0213
@<TRIPOS>BOND
     1    23    24    2
     2    24    22    1
     3    22     1    1
     4     1     2   ar
     5     2     3    2
     6     2     4   ar
     7     4     5   ar
     8     5     6   ar
     9     6     7   ar
    10     7     8   ar
    11     8    12    1
    12    12    13   ar
    13    13    14   ar
    14    14    15   ar
    15    15    16   ar
    16    16    18    1
    17    18    19    1
    18    18    20    1
    19    18    21    1
    20    16    17   ar
    21     8     9   ar
    22     9    10   ar
    23    24    25   am
    24    25    27    1
    25    27    28    1
    26    28    29    1
    27    10     1   ar
    28    29    27    1
    29    10     5    1
    30    17    12   ar
    31     6    11    1
    32    25    26    1
@<TRIPOS>MOLECULE
*****
 29 32 0 0 0
SMALL
GASTEIGER

@<TRIPOS>ATOM
      1 N         141.0265  143.9931  162.3187 N.ar    1  UNL1       -0.2680
      2 C         141.9867  144.4856  161.2768 C.ar    1  UNL1        0.3519
      3 O         141.6188  145.1012  159.9593 O.2     1  UNL1       -0.2444
      4 N         143.3793  144.2545  161.7838 N.ar    1  UNL1       -0.1736
      5 C         143.2799  143.6192  163.1390 C.ar    1  UNL1        0.1613
      6 N         144.3256  143.1669  164.1146 N.ar    1  UNL1       -0.3361
      7 C         143.9171  142.5531  165.4208 C.ar    1  UNL1        0.0735
      8 C         142.4629  142.3915  165.7514 C.ar    1  UNL1        0.0186
      9 C         141.4172  142.8438  164.7758 C.ar    1  UNL1        0.0219
     10 C         141.8257  143.4576  163.4695 C.ar    1  UNL1        0.0984
     11 H         145.2800  143.2729  163.8977 H       1  UNL1        0.1674
     12 C         142.0544  141.7776  167.0577 C.ar    1  UNL1        0.0014
     13 C         142.5118  140.3936  167.4116 C.ar    1  UNL1        0.0000
     14 C         142.1034  139.7797  168.7179 C.ar    1  UNL1       -0.0001
     15 C         141.2375  140.5499  169.6703 C.ar    1  UNL1        0.0039
     16 C         140.7800  141.9340  169.3164 C.ar    1  UNL1        0.0714
     17 C         141.1885  142.5478  168.0101 C.ar    1  UNL1        0.0039
     18 C         139.9141  142.7042  170.2687 C.3     1  UNL1        0.4186
     19 F         139.0482  143.4743  171.2211 F       1  UNL1       -0.1659
     20 F         138.9477  141.5580  170.3169 F       1  UNL1       -0.1659
     21 F         140.8806  143.8503  170.2206 F       1  UNL1       -0.1659
     22 C         139.5298  144.0296  162.2259 C.3     1  UNL1        0.1954
     23 O         137.2975  142.7567  162.6089 O.2     1  UNL1       -0.2730
     24 C         138.7471  142.7501  162.2229 C.2     1  UNL1        0.2457
     25 N         139.4137  141.4639  161.8339 N.am    1  UNL1       -0.3044
     26 H         140.3650  141.4596  161.5805 H       1  UNL1        0.1494
     27 C         138.6308  140.1844  161.8308 C.3     1  UNL1        0.0717
     28 C         138.2018  138.9223  162.5188 C.3     1  UNL1        0.0213
     29 C         137.7038  139.2303  161.1378 C.3     1  UNL1        0.0213
@<TRIPOS>BOND
     1    23    24    2
     2    24    22    1
     3    22     1    1
     4     1     2   ar
     5     2     3    2
     6     2     4   ar
     7     4     5   ar
     8     5     6   ar
     9     6     7   ar
    10     7     8   ar
    11     8    12    1
    12    12    13   ar
    13    13    14   ar
    14    14    15   ar
    15    15    16   ar
    16    16    18    1
    17    18    19    1
    18    18    20    1
    19    18    21    1
    20    16    17   ar
    21     8     9   ar
    22     9    10   ar
    23    24    25   am
    24    25    27    1
    25    27    28    1
    26    28    29    1
    27    10     1   ar
    28    29    27    1
    29    10     5    1
    30    17    12   ar
    31     6    11    1
    32    25    26    1
@<TRIPOS>MOLECULE
*****
 29 32 0 0 0
SMALL
GASTEIGER

@<TRIPOS>ATOM
      1 N         138.6947  140.0601  161.0672 N.ar    1  UNL1       -0.2680
      2 C         138.8082  139.5495  159.6614 C.ar    1  UNL1        0.3519
      3 O         137.9070  139.9088  158.5174 O.2     1  UNL1       -0.2444
      4 N         139.9812  138.6165  159.6004 N.ar    1  UNL1       -0.1736
      5 C         140.5926  138.5505  160.9686 C.ar    1  UNL1        0.1613
      6 N         141.7705  137.7932  161.5060 N.ar    1  UNL1       -0.3361
      7 C         142.1534  137.9281  162.9500 C.ar    1  UNL1        0.0735
      8 C         141.3584  138.8203  163.8565 C.ar    1  UNL1        0.0186
      9 C         140.1804  139.5776  163.3191 C.ar    1  UNL1        0.0219
     10 C         139.7975  139.4427  161.8751 C.ar    1  UNL1        0.0984
     11 H         142.2924  137.2076  160.9110 H       1  UNL1        0.1674
     12 C         141.7413  138.9552  165.3006 C.ar    1  UNL1        0.0014
     13 C         143.0539  138.4121  165.7823 C.ar    1  UNL1        0.0000
     14 C         143.4368  138.5470  167.2264 C.ar    1  UNL1       -0.0001
     15 C         142.5071  139.2251  168.1887 C.ar    1  UNL1        0.0039
     16 C         141.1945  139.7682  167.7069 C.ar    1  UNL1        0.0714
     17 C         140.8116  139.6332  166.2629 C.ar    1  UNL1        0.0039
     18 C         140.2648  140.4462  168.6691 C.3     1  UNL1        0.4186
     19 F         139.3351  141.1242  169.6314 F       1  UNL1       -0.1659
     20 F         139.8081  141.3685  167.5779 F       1  UNL1       -0.1659
     21 F         140.7215  139.5238  169.7603 F       1  UNL1       -0.1659
     22 C         137.6601  141.0197  161.5759 C.3     1  UNL1        0.1954
     23 O         138.3398  143.5159  161.3377 O.2     1  UNL1       -0.2730
     24 C         138.0823  142.3162  162.2007 C.2     1  UNL1        0.2457
     25 N         138.2473  142.4134  163.6884 N.am    1  UNL1       -0.3044
     26 H         138.0783  141.6261  164.2549 H       1  UNL1        0.1494
     27 C         138.6696  143.7101  164.3131 C.3     1  UNL1        0.0717
     28 C         139.6212  144.8673  164.3871 C.3     1  UNL1        0.0213
     29 C         138.4495  144.7989  165.3211 C.3     1  UNL1        0.0213
@<TRIPOS>BOND
     1    23    24    2
     2    24    22    1
     3    22     1    1
     4     1     2   ar
     5     2     3    2
     6     2     4   ar
     7     4     5   ar
     8     5     6   ar
     9     6     7   ar
    10     7     8   ar
    11     8    12    1
    12    12    13   ar
    13    13    14   ar
    14    14    15   ar
    15    15    16   ar
    16    16    18    1
    17    18    19    1
    18    18    20    1
    19    18    21    1
    20    16    17   ar
    21     8     9   ar
    22     9    10   ar
    23    24    25   am
    24    25    27    1
    25    27    28    1
    26    28    29    1
    27    10     1   ar
    28    29    27    1
    29    10     5    1
    30    17    12   ar
    31     6    11    1
    32    25    26    1
@<TRIPOS>MOLECULE
*****
 29 32 0 0 0
SMALL
GASTEIGER

@<TRIPOS>ATOM
      1 N         139.3003  143.2530  162.1504 N.ar    1  UNL1       -0.2680
      2 C         138.3727  142.6844  161.1178 C.ar    1  UNL1        0.3519
      3 O         138.1596  143.2207  159.7333 O.2     1  UNL1       -0.2444
      4 N         137.6958  141.4854  161.7129 N.ar    1  UNL1       -0.1736
      5 C         138.2050  141.3129  163.1132 C.ar    1  UNL1        0.1613
      6 N         137.8937  140.3023  164.1770 N.ar    1  UNL1       -0.3361
      7 C         138.5742  140.3841  165.5113 C.ar    1  UNL1        0.0735
      8 C         139.5659  141.4766  165.7817 C.ar    1  UNL1        0.0186
      9 C         139.8771  142.4872  164.7179 C.ar    1  UNL1        0.0219
     10 C         139.1966  142.4054  163.3837 C.ar    1  UNL1        0.0984
     11 H         137.2429  139.5853  163.9995 H       1  UNL1        0.1674
     12 C         140.2463  141.5584  167.1160 C.ar    1  UNL1        0.0014
     13 C         140.3304  142.8717  167.8358 C.ar    1  UNL1        0.0000
     14 C         141.0109  142.9535  169.1701 C.ar    1  UNL1       -0.0001
     15 C         141.6072  141.7219  169.7846 C.ar    1  UNL1        0.0039
     16 C         141.5231  140.4085  169.0648 C.ar    1  UNL1        0.0714
     17 C         140.8427  140.3268  167.7305 C.ar    1  UNL1        0.0039
     18 C         142.1194  139.1769  169.6793 C.3     1  UNL1        0.4186
     19 F         142.7158  137.9454  170.2938 F       1  UNL1       -0.1659
     20 F         142.9542  138.9681  168.4506 F       1  UNL1       -0.1659
     21 F         141.2847  139.3858  170.9079 F       1  UNL1       -0.1659
     22 C         140.1776  144.4577  161.9798 C.3     1  UNL1        0.1954
     23 O         142.2585  144.3339  160.4292 O.2     1  UNL1       -0.2730
     24 C         140.8295  144.7294  160.6566 C.2     1  UNL1        0.2457
     25 N         140.0526  145.3968  159.5606 N.am    1  UNL1       -0.3044
     26 H         139.1148  145.6564  159.7098 H       1  UNL1        0.1494
     27 C         140.7046  145.6685  158.2374 C.3     1  UNL1        0.0717
     28 C         141.9368  145.7259  157.3837 C.3     1  UNL1        0.0213
     29 C         140.6020  146.0818  156.7991 C.3     1  UNL1        0.0213
@<TRIPOS>BOND
     1    23    24    2
     2    24    22    1
     3    22     1    1
     4     1     2   ar
     5     2     3    2
     6     2     4   ar
     7     4     5   ar
     8     5     6   ar
     9     6     7   ar
    10     7     8   ar
    11     8    12    1
    12    12    13   ar
    13    13    14   ar
    14    14    15   ar
    15    15    16   ar
    16    16    18    1
    17    18    19    1
    18    18    20    1
    19    18    21    1
    20    16    17   ar
    21     8     9   ar
    22     9    10   ar
    23    24    25   am
    24    25    27    1
    25    27    28    1
    26    28    29    1
    27    10     1   ar
    28    29    27    1
    29    10     5    1
    30    17    12   ar
    31     6    11    1
    32    25    26    1
