@<TRIPOS>MOLECULE
*****
 24 26 0 0 0
SMALL
GASTEIGER

@<TRIPOS>ATOM
      1 O         140.9469  141.0081  163.8044 O.2     1  UNL1       -0.2699
      2 C         141.1635  140.1259  164.9980 C.2     1  UNL1        0.2490
      3 N         142.5267  140.0199  165.6148 N.am    1  UNL1       -0.2763
      4 C         140.0169  139.3496  165.5748 C.ar    1  UNL1        0.0575
      5 C         139.2588  139.8931  166.7495 C.ar    1  UNL1        0.0045
      6 C         138.1122  139.1169  167.3264 C.ar    1  UNL1        0.0001
      7 C         137.7237  137.7973  166.7285 C.ar    1  UNL1       -0.0001
      8 C         138.4817  137.2538  165.5538 C.ar    1  UNL1        0.0040
      9 C         139.6283  138.0300  164.9769 C.ar    1  UNL1        0.0758
     10 C         140.3864  137.4865  163.8022 C.3     1  UNL1        0.4187
     11 F         141.1445  136.9430  162.6275 F       1  UNL1       -0.1659
     12 F         139.4503  138.1964  162.8697 F       1  UNL1       -0.1659
     13 F         141.3225  136.7766  164.7348 F       1  UNL1       -0.1659
     14 C         143.6734  140.7961  165.0379 C.3     1  UNL1        0.0927
     15 C         144.7713  140.2406  164.1800 C.3     1  UNL1        0.0383
     16 C         145.6998  141.3653  163.8297 C.3     1  UNL1        0.0704
     17 N         145.1758  142.6160  164.4710 N.3     1  UNL1       -0.2960
     18 C         143.9233  142.2642  165.2178 C.3     1  UNL1        0.0887
     19 H         144.9678  143.3115  163.7545 H       1  UNL1        0.1233
     20 C         142.7433  139.1376  166.8084 C.3     1  UNL1        0.0936
     21 C         142.6658  139.7141  168.1911 C.3     1  UNL1        0.0199
     22 C         142.7539  141.0945  168.7711 C.3     1  UNL1        0.0017
     23 C         142.5563  140.5293  170.1464 C.3     1  UNL1        0.0001
     24 C         142.4682  139.1488  169.5663 C.3     1  UNL1        0.0017
@<TRIPOS>BOND
     1     1     2    2
     2     2     4    1
     3     4     5   ar
     4     5     6   ar
     5     6     7   ar
     6     7     8   ar
     7     8     9   ar
     8     9    10    1
     9    10    11    1
    10    10    12    1
    11    10    13    1
    12     2     3   am
    13     3    20    1
    14    20    21    1
    15    21    22    1
    16    22    23    1
    17    23    24    1
    18    14     3    1
    19    14    15    1
    20    15    16    1
    21    16    17    1
    22    17    18    1
    23     9     4   ar
    24    24    21    1
    25    18    14    1
    26    17    19    1
@<TRIPOS>MOLECULE
*****
 24 26 0 0 0
SMALL
GASTEIGER

@<TRIPOS>ATOM
      1 O         144.1305  138.0320  166.9933 O.2     1  UNL1       -0.2699
      2 C         142.9780  138.7444  166.3496 C.2     1  UNL1        0.2490
      3 N         142.2051  139.7715  167.1226 N.am    1  UNL1       -0.2763
      4 C         142.5986  138.4295  164.9329 C.ar    1  UNL1        0.0575
      5 C         141.5246  137.4211  164.6506 C.ar    1  UNL1        0.0045
      6 C         141.1451  137.1063  163.2340 C.ar    1  UNL1        0.0001
      7 C         141.8396  137.7999  162.0997 C.ar    1  UNL1       -0.0001
      8 C         142.9135  138.8083  162.3821 C.ar    1  UNL1        0.0040
      9 C         143.2930  139.1231  163.7987 C.ar    1  UNL1        0.0758
     10 C         144.3670  140.1316  164.0810 C.3     1  UNL1        0.4187
     11 F         145.4409  141.1400  164.3634 F       1  UNL1       -0.1659
     12 F         143.3485  141.2315  164.0264 F       1  UNL1       -0.1659
     13 F         145.3854  139.0317  164.1356 F       1  UNL1       -0.1659
     14 C         142.5845  140.0863  168.5393 C.3     1  UNL1        0.0927
     15 C         142.4814  139.1519  169.7081 C.3     1  UNL1        0.0383
     16 C         142.9669  139.8789  170.9270 C.3     1  UNL1        0.0704
     17 N         143.3701  141.2627  170.5115 N.3     1  UNL1       -0.2960
     18 C         143.1337  141.3909  169.0357 C.3     1  UNL1        0.0887
     19 H         144.3577  141.4123  170.7182 H       1  UNL1        0.1233
     20 C         141.0526  140.4838  166.4789 C.3     1  UNL1        0.0936
     21 C         139.6776  139.8864  166.5318 C.3     1  UNL1        0.0199
     22 C         138.6322  139.5391  165.5139 C.3     1  UNL1        0.0017
     23 C         137.7332  139.0416  166.6067 C.3     1  UNL1        0.0001
     24 C         138.7787  139.3890  167.6247 C.3     1  UNL1        0.0017
@<TRIPOS>BOND
     1     1     2    2
     2     2     4    1
     3     4     5   ar
     4     5     6   ar
     5     6     7   ar
     6     7     8   ar
     7     8     9   ar
     8     9    10    1
     9    10    11    1
    10    10    12    1
    11    10    13    1
    12     2     3   am
    13     3    20    1
    14    20    21    1
    15    21    22    1
    16    22    23    1
    17    23    24    1
    18    14     3    1
    19    14    15    1
    20    15    16    1
    21    16    17    1
    22    17    18    1
    23     9     4   ar
    24    24    21    1
    25    18    14    1
    26    17    19    1
@<TRIPOS>MOLECULE
*****
 24 26 0 0 0
SMALL
GASTEIGER

@<TRIPOS>ATOM
      1 O         144.3820  142.0201  165.1195 O.2     1  UNL1       -0.2699
      2 C         143.1055  142.1421  165.8976 C.2     1  UNL1        0.2490
      3 N         141.9432  142.8933  165.3189 N.am    1  UNL1       -0.2763
      4 C         142.9912  141.5130  167.2545 C.ar    1  UNL1        0.0575
      5 C         143.2748  142.3244  168.4838 C.ar    1  UNL1        0.0045
      6 C         143.1605  141.6953  169.8406 C.ar    1  UNL1        0.0001
      7 C         142.7626  140.2547  169.9682 C.ar    1  UNL1       -0.0001
      8 C         142.4790  139.4433  168.7390 C.ar    1  UNL1        0.0040
      9 C         142.5932  140.0724  167.3821 C.ar    1  UNL1        0.0758
     10 C         142.3096  139.2609  166.1529 C.3     1  UNL1        0.4187
     11 F         142.0259  138.4494  164.9236 F       1  UNL1       -0.1659
     12 F         143.7513  138.8514  166.0906 F       1  UNL1       -0.1659
     13 F         140.8679  139.6704  166.2152 F       1  UNL1       -0.1659
     14 C         142.0575  143.5224  163.9620 C.3     1  UNL1        0.0927
     15 C         141.7821  142.8474  162.6511 C.3     1  UNL1        0.0383
     16 C         142.0217  143.8449  161.5567 C.3     1  UNL1        0.0704
     17 N         142.4451  145.1365  162.1913 N.3     1  UNL1       -0.2960
     18 C         142.4673  144.9372  163.6779 C.3     1  UNL1        0.0887
     19 H         141.7827  145.8739  161.9507 H       1  UNL1        0.1233
     20 C         140.6667  143.0153  166.0970 C.3     1  UNL1        0.0936
     21 C         139.4158  143.4870  165.4166 C.3     1  UNL1        0.0199
     22 C         138.3436  142.8334  164.5963 C.3     1  UNL1        0.0017
     23 C         137.6468  144.1542  164.4545 C.3     1  UNL1        0.0001
     24 C         138.7191  144.8078  165.2749 C.3     1  UNL1        0.0017
@<TRIPOS>BOND
     1     1     2    2
     2     2     4    1
     3     4     5   ar
     4     5     6   ar
     5     6     7   ar
     6     7     8   ar
     7     8     9   ar
     8     9    10    1
     9    10    11    1
    10    10    12    1
    11    10    13    1
    12     2     3   am
    13     3    20    1
    14    20    21    1
    15    21    22    1
    16    22    23    1
    17    23    24    1
    18    14     3    1
    19    14    15    1
    20    15    16    1
    21    16    17    1
    22    17    18    1
    23     9     4   ar
    24    24    21    1
    25    18    14    1
    26    17    19    1
@<TRIPOS>MOLECULE
*****
 24 26 0 0 0
SMALL
GASTEIGER

@<TRIPOS>ATOM
      1 O         143.1616  139.0783  165.9570 O.2     1  UNL1       -0.2699
      2 C         141.9356  139.6949  165.3515 C.2     1  UNL1        0.2490
      3 N         142.0709  140.7501  164.2940 N.am    1  UNL1       -0.2763
      4 C         140.5742  139.2563  165.8035 C.ar    1  UNL1        0.0575
      5 C         139.9310  139.9107  166.9902 C.ar    1  UNL1        0.0045
      6 C         138.5697  139.4722  167.4423 C.ar    1  UNL1        0.0001
      7 C         137.8515  138.3793  166.7077 C.ar    1  UNL1       -0.0001
      8 C         138.4946  137.7249  165.5210 C.ar    1  UNL1        0.0040
      9 C         139.8560  138.1634  165.0689 C.ar    1  UNL1        0.0758
     10 C         140.4991  137.5091  163.8822 C.3     1  UNL1        0.4187
     11 F         141.1422  136.8547  162.6956 F       1  UNL1       -0.1659
     12 F         141.2045  136.5492  164.7938 F       1  UNL1       -0.1659
     13 F         139.7937  138.4690  162.9707 F       1  UNL1       -0.1659
     14 C         143.4323  141.1887  163.8420 C.3     1  UNL1        0.0927
     15 C         144.3444  142.1276  164.5743 C.3     1  UNL1        0.0383
     16 C         145.5964  142.2846  163.7631 C.3     1  UNL1        0.0704
     17 N         145.4580  141.4425  162.5294 N.3     1  UNL1       -0.2960
     18 C         144.1205  140.7652  162.5782 C.3     1  UNL1        0.0887
     19 H         146.1996  140.7427  162.5030 H       1  UNL1        0.1233
     20 C         140.8448  141.3667  163.6885 C.3     1  UNL1        0.0936
     21 C         140.1741  142.5240  164.3673 C.3     1  UNL1        0.0199
     22 C         138.8038  142.7798  164.9210 C.3     1  UNL1        0.0017
     23 C         139.2256  144.1608  165.3272 C.3     1  UNL1        0.0001
     24 C         140.5960  143.9050  164.7735 C.3     1  UNL1        0.0017
@<TRIPOS>BOND
     1     1     2    2
     2     2     4    1
     3     4     5   ar
     4     5     6   ar
     5     6     7   ar
     6     7     8   ar
     7     8     9   ar
     8     9    10    1
     9    10    11    1
    10    10    12    1
    11    10    13    1
    12     2     3   am
    13     3    20    1
    14    20    21    1
    15    21    22    1
    16    22    23    1
    17    23    24    1
    18    14     3    1
    19    14    15    1
    20    15    16    1
    21    16    17    1
    22    17    18    1
    23     9     4   ar
    24    24    21    1
    25    18    14    1
    26    17    19    1
@<TRIPOS>MOLECULE
*****
 24 26 0 0 0
SMALL
GASTEIGER

@<TRIPOS>ATOM
      1 O         139.6005  143.7423  165.1569 O.2     1  UNL1       -0.2699
      2 C         140.6428  142.9122  165.8457 C.2     1  UNL1        0.2490
      3 N         142.0206  142.8033  165.2630 N.am    1  UNL1       -0.2763
      4 C         140.3071  142.1908  167.1174 C.ar    1  UNL1        0.0575
      5 C         140.5103  142.8684  168.4401 C.ar    1  UNL1        0.0045
      6 C         140.1747  142.1471  169.7117 C.ar    1  UNL1        0.0001
      7 C         139.6359  140.7482  169.6606 C.ar    1  UNL1       -0.0001
      8 C         139.4327  140.0706  168.3379 C.ar    1  UNL1        0.0040
      9 C         139.7683  140.7919  167.0663 C.ar    1  UNL1        0.0758
     10 C         139.5651  140.1142  165.7436 C.3     1  UNL1        0.4187
     11 F         139.3619  139.4366  164.4209 F       1  UNL1       -0.1659
     12 F         140.8715  139.3964  165.9107 F       1  UNL1       -0.1659
     13 F         138.2587  140.8321  165.5766 F       1  UNL1       -0.1659
     14 C         142.3563  143.5247  163.9913 C.3     1  UNL1        0.0927
     15 C         142.0375  143.0574  162.6021 C.3     1  UNL1        0.0383
     16 C         142.5539  144.0839  161.6379 C.3     1  UNL1        0.0704
     17 N         143.1917  145.1856  162.4312 N.3     1  UNL1       -0.2960
     18 C         143.0696  144.8400  163.8858 C.3     1  UNL1        0.0887
     19 H         142.7152  146.0678  162.2438 H       1  UNL1        0.1233
     20 C         143.0629  141.9732  165.9518 C.3     1  UNL1        0.0936
     21 C         143.8710  140.9820  165.1678 C.3     1  UNL1        0.0199
     22 C         145.0209  141.0727  164.2091 C.3     1  UNL1        0.0017
     23 C         145.0137  139.5802  164.0591 C.3     1  UNL1        0.0001
     24 C         143.8637  139.4895  165.0178 C.3     1  UNL1        0.0017
@<TRIPOS>BOND
     1     1     2    2
     2     2     4    1
     3     4     5   ar
     4     5     6   ar
     5     6     7   ar
     6     7     8   ar
     7     8     9   ar
     8     9    10    1
     9    10    11    1
    10    10    12    1
    11    10    13    1
    12     2     3   am
    13     3    20    1
    14    20    21    1
    15    21    22    1
    16    22    23    1
    17    23    24    1
    18    14     3    1
    19    14    15    1
    20    15    16    1
    21    16    17    1
    22    17    18    1
    23     9     4   ar
    24    24    21    1
    25    18    14    1
    26    17    19    1
@<TRIPOS>MOLECULE
*****
 24 26 0 0 0
SMALL
GASTEIGER

@<TRIPOS>ATOM
      1 O         141.7176  138.9855  165.7674 O.2     1  UNL1       -0.2699
      2 C         140.5024  139.8377  165.9840 C.2     1  UNL1        0.2490
      3 N         139.4718  139.9632  164.9014 N.am    1  UNL1       -0.2763
      4 C         140.3178  140.5646  167.2831 C.ar    1  UNL1        0.0575
      5 C         139.4693  139.9640  168.3645 C.ar    1  UNL1        0.0045
      6 C         139.2848  140.6908  169.6636 C.ar    1  UNL1        0.0001
      7 C         139.9487  142.0181  169.8813 C.ar    1  UNL1       -0.0001
      8 C         140.7972  142.6186  168.7999 C.ar    1  UNL1        0.0040
      9 C         140.9818  141.8918  167.5008 C.ar    1  UNL1        0.0758
     10 C         141.8303  142.4924  166.4195 C.3     1  UNL1        0.4187
     11 F         142.6788  143.0929  165.3381 F       1  UNL1       -0.1659
     12 F         143.0102  141.7058  166.9085 F       1  UNL1       -0.1659
     13 F         140.6504  143.2789  165.9304 F       1  UNL1       -0.1659
     14 C         139.6563  139.2363  163.6022 C.3     1  UNL1        0.0927
     15 C         140.5486  139.6606  162.4736 C.3     1  UNL1        0.0383
     16 C         140.4247  138.6441  161.3775 C.3     1  UNL1        0.0704
     17 N         139.4558  137.5916  161.8287 N.3     1  UNL1       -0.2960
     18 C         138.9809  137.9576  163.2038 C.3     1  UNL1        0.0887
     19 H         139.9184  136.6828  161.8528 H       1  UNL1        0.1233
     20 C         138.2565  140.8154  165.1179 C.3     1  UNL1        0.0936
     21 C         138.0160  142.0135  164.2478 C.3     1  UNL1        0.0199
     22 C         137.8985  143.4899  164.4847 C.3     1  UNL1        0.0017
     23 C         137.6757  143.7076  163.0174 C.3     1  UNL1        0.0001
     24 C         137.7932  142.2311  162.7805 C.3     1  UNL1        0.0017
@<TRIPOS>BOND
     1     1     2    2
     2     2     4    1
     3     4     5   ar
     4     5     6   ar
     5     6     7   ar
     6     7     8   ar
     7     8     9   ar
     8     9    10    1
     9    10    11    1
    10    10    12    1
    11    10    13    1
    12     2     3   am
    13     3    20    1
    14    20    21    1
    15    21    22    1
    16    22    23    1
    17    23    24    1
    18    14     3    1
    19    14    15    1
    20    15    16    1
    21    16    17    1
    22    17    18    1
    23     9     4   ar
    24    24    21    1
    25    18    14    1
    26    17    19    1
@<TRIPOS>MOLECULE
*****
 24 26 0 0 0
SMALL
GASTEIGER

@<TRIPOS>ATOM
      1 O         140.3624  143.7630  165.5380 O.2     1  UNL1       -0.2699
      2 C         140.5844  142.3222  165.1847 C.2     1  UNL1        0.2490
      3 N         141.5661  141.9558  164.1114 N.am    1  UNL1       -0.2763
      4 C         139.8246  141.2477  165.9048 C.ar    1  UNL1        0.0575
      5 C         138.7982  140.4355  165.1722 C.ar    1  UNL1        0.0045
      6 C         138.0384  139.3611  165.8922 C.ar    1  UNL1        0.0001
      7 C         138.3051  139.0990  167.3448 C.ar    1  UNL1       -0.0001
      8 C         139.3316  139.9112  168.0774 C.ar    1  UNL1        0.0040
      9 C         140.0913  140.9855  167.3574 C.ar    1  UNL1        0.0758
     10 C         141.1178  141.7977  168.0900 C.3     1  UNL1        0.4187
     11 F         142.1443  142.6099  168.8226 F       1  UNL1       -0.1659
     12 F         140.0659  142.8061  168.4460 F       1  UNL1       -0.1659
     13 F         142.1697  140.7894  167.7340 F       1  UNL1       -0.1659
     14 C         142.3259  143.0302  163.3914 C.3     1  UNL1        0.0927
     15 C         143.6929  143.5338  163.7485 C.3     1  UNL1        0.0383
     16 C         144.0638  144.6045  162.7656 C.3     1  UNL1        0.0704
     17 N         142.9260  144.7626  161.8010 N.3     1  UNL1       -0.2960
     18 C         141.8518  143.7895  162.1877 C.3     1  UNL1        0.0887
     19 H         143.2462  144.5658  160.8527 H       1  UNL1        0.1233
     20 C         141.7881  140.5150  163.7582 C.3     1  UNL1        0.0936
     21 C         142.5622  139.6260  164.6859 C.3     1  UNL1        0.0199
     22 C         143.9793  139.5811  165.1754 C.3     1  UNL1        0.0017
     23 C         143.6568  138.3687  165.9978 C.3     1  UNL1        0.0001
     24 C         142.2397  138.4136  165.5082 C.3     1  UNL1        0.0017
@<TRIPOS>BOND
     1     1     2    2
     2     2     4    1
     3     4     5   ar
     4     5     6   ar
     5     6     7   ar
     6     7     8   ar
     7     8     9   ar
     8     9    10    1
     9    10    11    1
    10    10    12    1
    11    10    13    1
    12     2     3   am
    13     3    20    1
    14    20    21    1
    15    21    22    1
    16    22    23    1
    17    23    24    1
    18    14     3    1
    19    14    15    1
    20    15    16    1
    21    16    17    1
    22    17    18    1
    23     9     4   ar
    24    24    21    1
    25    18    14    1
    26    17    19    1
@<TRIPOS>MOLECULE
*****
 24 26 0 0 0
SMALL
GASTEIGER

@<TRIPOS>ATOM
      1 O         139.3487  140.0802  166.9484 O.2     1  UNL1       -0.2699
      2 C         139.9862  141.4297  166.7987 C.2     1  UNL1        0.2490
      3 N         139.7234  142.2514  165.5717 N.am    1  UNL1       -0.2763
      4 C         140.8866  141.9575  167.8762 C.ar    1  UNL1        0.0575
      5 C         140.3388  142.8755  168.9284 C.ar    1  UNL1        0.0045
      6 C         141.2391  143.4032  170.0058 C.ar    1  UNL1        0.0001
      7 C         142.6872  143.0130  170.0310 C.ar    1  UNL1       -0.0001
      8 C         143.2350  142.0950  168.9788 C.ar    1  UNL1        0.0040
      9 C         142.3347  141.5672  167.9014 C.ar    1  UNL1        0.0758
     10 C         142.8825  140.6492  166.8492 C.3     1  UNL1        0.4187
     11 F         143.4303  139.7312  165.7969 F       1  UNL1       -0.1659
     12 F         142.4616  139.4629  167.6650 F       1  UNL1       -0.1659
     13 F         143.3034  141.8355  166.0333 F       1  UNL1       -0.1659
     14 C         138.8230  141.7237  164.4943 C.3     1  UNL1        0.0927
     15 C         139.1430  140.6054  163.5471 C.3     1  UNL1        0.0383
     16 C         137.9623  140.4122  162.6423 C.3     1  UNL1        0.0704
     17 N         136.9125  141.4110  163.0303 N.3     1  UNL1       -0.2960
     18 C         137.4445  142.2216  164.1749 C.3     1  UNL1        0.0887
     19 H         136.0618  140.9259  163.3155 H       1  UNL1        0.1233
     20 C         140.3608  143.6010  165.4221 C.3     1  UNL1        0.0936
     21 C         141.1946  143.9067  164.2131 C.3     1  UNL1        0.0199
     22 C         142.0532  143.0996  163.2851 C.3     1  UNL1        0.0017
     23 C         142.3736  144.3391  162.5035 C.3     1  UNL1        0.0001
     24 C         141.5150  145.1463  163.4316 C.3     1  UNL1        0.0017
@<TRIPOS>BOND
     1     1     2    2
     2     2     4    1
     3     4     5   ar
     4     5     6   ar
     5     6     7   ar
     6     7     8   ar
     7     8     9   ar
     8     9    10    1
     9    10    11    1
    10    10    12    1
    11    10    13    1
    12     2     3   am
    13     3    20    1
    14    20    21    1
    15    21    22    1
    16    22    23    1
    17    23    24    1
    18    14     3    1
    19    14    15    1
    20    15    16    1
    21    16    17    1
    22    17    18    1
    23     9     4   ar
    24    24    21    1
    25    18    14    1
    26    17    19    1
@<TRIPOS>MOLECULE
*****
 24 26 0 0 0
SMALL
GASTEIGER

@<TRIPOS>ATOM
      1 O         141.0702  139.2733  168.1987 O.2     1  UNL1       -0.2699
      2 C         140.9137  139.9796  166.8847 C.2     1  UNL1        0.2490
      3 N         141.0877  141.4674  166.8076 N.am    1  UNL1       -0.2763
      4 C         140.5832  139.1980  165.6478 C.ar    1  UNL1        0.0575
      5 C         139.1508  138.9723  165.2637 C.ar    1  UNL1        0.0045
      6 C         138.8202  138.1908  164.0268 C.ar    1  UNL1        0.0001
      7 C         139.9220  137.6348  163.1741 C.ar    1  UNL1       -0.0001
      8 C         141.3543  137.8605  163.5583 C.ar    1  UNL1        0.0040
      9 C         141.6849  138.6420  164.7951 C.ar    1  UNL1        0.0758
     10 C         143.1172  138.8677  165.1793 C.3     1  UNL1        0.4187
     11 F         144.5495  139.0933  165.5634 F       1  UNL1       -0.1659
     12 F         143.1483  140.1073  164.3352 F       1  UNL1       -0.1659
     13 F         143.0861  137.6281  166.0233 F       1  UNL1       -0.1659
     14 C         141.4183  142.2491  168.0445 C.3     1  UNL1        0.0927
     15 C         140.4554  143.0639  168.8561 C.3     1  UNL1        0.0383
     16 C         141.2118  143.6715  170.0001 C.3     1  UNL1        0.0704
     17 N         142.6422  143.2321  169.8955 N.3     1  UNL1       -0.2960
     18 C         142.7698  142.3529  168.6868 C.3     1  UNL1        0.0887
     19 H         142.9064  142.7113  170.7318 H       1  UNL1        0.1233
     20 C         140.9312  142.1737  165.4936 C.3     1  UNL1        0.0936
     21 C         139.6556  142.8974  165.1783 C.3     1  UNL1        0.0199
     22 C         139.1783  144.3130  165.3123 C.3     1  UNL1        0.0017
     23 C         137.8517  143.9206  164.7325 C.3     1  UNL1        0.0001
     24 C         138.3290  142.5049  164.5985 C.3     1  UNL1        0.0017
@<TRIPOS>BOND
     1     1     2    2
     2     2     4    1
     3     4     5   ar
     4     5     6   ar
     5     6     7   ar
     6     7     8   ar
     7     8     9   ar
     8     9    10    1
     9    10    11    1
    10    10    12    1
    11    10    13    1
    12     2     3   am
    13     3    20    1
    14    20    21    1
    15    21    22    1
    16    22    23    1
    17    23    24    1
    18    14     3    1
    19    14    15    1
    20    15    16    1
    21    16    17    1
    22    17    18    1
    23     9     4   ar
    24    24    21    1
    25    18    14    1
    26    17    19    1
