@<TRIPOS>MOLECULE
*****
 37 41 0 0 0
SMALL
GASTEIGER

@<TRIPOS>ATOM
      1 C         142.2225  139.2162  158.7513 C.3     1  UNL1        0.0806
      2 C         142.1163  139.0788  157.2614 C.3     1  UNL1        0.0108
      3 C         142.3788  137.7534  156.6098 C.3     1  UNL1        0.0165
      4 C         142.7475  136.5654  157.4482 C.3     1  UNL1        0.0580
      5 C         142.8537  136.7029  158.9381 C.3     1  UNL1        0.0208
      6 C         142.5913  138.0282  159.5897 C.3     1  UNL1        0.0323
      7 C         142.6975  138.1656  161.0796 C.ar    1  UNL1       -0.0220
      8 C         143.9599  138.6911  161.6962 C.ar    1  UNL1       -0.0038
      9 C         144.0661  138.8284  163.1861 C.ar    1  UNL1        0.0064
     10 C         142.9099  138.4404  164.0594 C.ar    1  UNL1        0.0345
     11 BR        143.0162  138.5778  165.5494 Br      1  UNL1       -0.0490
     12 C         141.6475  137.9149  163.4428 C.ar    1  UNL1        0.0064
     13 C         141.5413  137.7776  161.9529 C.ar    1  UNL1       -0.0038
     14 N         143.0100  135.2401  156.7967 N.3     1  UNL1       -0.2697
     15 C         143.6249  134.1240  157.5881 C.3     1  UNL1        0.1046
     16 C         143.8874  132.7986  156.9365 C.3     1  UNL1        0.1595
     17 O         143.5350  132.5894  155.4936 O.3     1  UNL1       -0.3508
     18 C         142.9201  133.7054  154.7022 C.3     1  UNL1        0.1595
     19 C         142.6576  135.0308  155.3538 C.3     1  UNL1        0.1046
     20 O         140.6383  140.8048  160.0614 O.2     1  UNL1       -0.2751
     21 C         141.9601  140.5415  159.4029 C.2     1  UNL1        0.2228
     22 N         143.0193  141.6035  159.3959 N.am    1  UNL1       -0.2974
     23 H         143.8868  141.4307  158.9637 H       1  UNL1        0.1500
     24 C         142.7568  142.9289  160.0475 C.3     1  UNL1        0.1363
     25 C         143.2555  143.1933  161.4373 C.ar    1  UNL1        0.0013
     26 C         144.2636  142.2735  162.0600 C.ar    1  UNL1       -0.0014
     27 C         144.7623  142.5379  163.4497 C.ar    1  UNL1        0.0111
     28 C         144.2529  143.7220  164.2167 C.ar    1  UNL1        0.0577
     29 CL        144.7516  143.9864  165.6065 Cl      1  UNL1       -0.0822
     30 C         143.2448  144.6418  163.5941 C.ar    1  UNL1        0.0111
     31 C         142.7461  144.3774  162.2043 C.ar    1  UNL1       -0.0014
     32 C         141.9956  143.9899  159.3093 C.ar    1  UNL1        0.1001
     33 C         140.5450  144.2208  159.6130 C.ar    1  UNL1        0.1155
     34 N         139.7838  145.2818  158.8748 N.ar    1  UNL1       -0.2394
     35 C         140.4733  146.1119  157.8329 C.ar    1  UNL1        0.1195
     36 C         141.9240  145.8809  157.5292 C.ar    1  UNL1        0.1192
     37 N         142.6851  144.8200  158.2674 N.ar    1  UNL1       -0.2430
@<TRIPOS>BOND
     1    20    21    2
     2    21    22   am
     3    22    24    1
     4    24    25    1
     5    25    26   ar
     6    26    27   ar
     7    27    28   ar
     8    28    29    1
     9    28    30   ar
    10    30    31   ar
    11    24    32    1
    12    32    33   ar
    13    33    34   ar
    14    34    35   ar
    15    35    36   ar
    16    36    37   ar
    17     1    21    1
    18     1     2    1
    19     2     3    1
    20     3     4    1
    21     4    14    1
    22    14    15    1
    23    15    16    1
    24    16    17    1
    25    17    18    1
    26    18    19    1
    27     4     5    1
    28     5     6    1
    29     6     7    1
    30     7     8   ar
    31     8     9   ar
    32     9    10   ar
    33    10    11    1
    34    10    12   ar
    35    12    13   ar
    36    31    25   ar
    37    37    32   ar
    38     6     1    1
    39    13     7   ar
    40    19    14    1
    41    22    23    1
@<TRIPOS>MOLECULE
*****
 37 41 0 0 0
SMALL
GASTEIGER

@<TRIPOS>ATOM
      1 C         141.0020  139.4540  160.4059 C.3     1  UNL1        0.0806
      2 C         140.6304  139.5047  158.9534 C.3     1  UNL1        0.0108
      3 C         141.2899  138.5757  157.9777 C.3     1  UNL1        0.0165
      4 C         142.3210  137.5960  158.4544 C.3     1  UNL1        0.0580
      5 C         142.6925  137.5453  159.9068 C.3     1  UNL1        0.0208
      6 C         142.0330  138.4743  160.8825 C.3     1  UNL1        0.0323
      7 C         142.4045  138.4236  162.3349 C.ar    1  UNL1       -0.0220
      8 C         141.5394  137.6745  163.3047 C.ar    1  UNL1       -0.0038
      9 C         141.9109  137.6238  164.7570 C.ar    1  UNL1        0.0064
     10 C         143.1476  138.3222  165.2396 C.ar    1  UNL1        0.0345
     11 BR        143.5191  138.2715  166.6920 Br      1  UNL1       -0.0490
     12 C         144.0127  139.0713  164.2699 C.ar    1  UNL1        0.0064
     13 C         143.6411  139.1220  162.8175 C.ar    1  UNL1       -0.0038
     14 N         142.9805  136.6670  157.4787 N.3     1  UNL1       -0.2697
     15 C         143.4922  137.1932  156.1705 C.3     1  UNL1        0.1046
     16 C         144.1517  136.2642  155.1948 C.3     1  UNL1        0.1595
     17 O         144.2995  134.8090  155.5273 O.3     1  UNL1       -0.3508
     18 C         143.7878  134.2828  156.8355 C.3     1  UNL1        0.1595
     19 C         143.1283  135.2118  157.8112 C.3     1  UNL1        0.1046
     20 O         138.8495  140.5289  161.3865 O.2     1  UNL1       -0.2751
     21 C         140.3424  140.3830  161.3816 C.2     1  UNL1        0.2228
     22 N         141.1758  141.1660  162.3523 N.am    1  UNL1       -0.2974
     23 H         142.1556  141.0701  162.3491 H       1  UNL1        0.1500
     24 C         140.5163  142.0950  163.3280 C.3     1  UNL1        0.1363
     25 C         140.2785  141.6526  164.7415 C.ar    1  UNL1        0.0013
     26 C         139.5546  140.3673  165.0134 C.ar    1  UNL1       -0.0014
     27 C         139.3169  139.9250  166.4269 C.ar    1  UNL1        0.0111
     28 C         139.8031  140.7680  167.5684 C.ar    1  UNL1        0.0577
     29 CL        139.5653  140.3256  168.9819 Cl      1  UNL1       -0.0822
     30 C         140.5270  142.0533  167.2964 C.ar    1  UNL1        0.0111
     31 C         140.7647  142.4956  165.8830 C.ar    1  UNL1       -0.0014
     32 C         140.0945  143.4662  162.8903 C.ar    1  UNL1        0.1001
     33 C         138.6379  143.7890  162.7346 C.ar    1  UNL1        0.1155
     34 N         138.2162  145.1603  162.2969 N.ar    1  UNL1       -0.2394
     35 C         139.2510  146.2089  162.0149 C.ar    1  UNL1        0.1195
     36 C         140.7076  145.8862  162.1706 C.ar    1  UNL1        0.1192
     37 N         141.1294  144.5149  162.6083 N.ar    1  UNL1       -0.2430
@<TRIPOS>BOND
     1    20    21    2
     2    21    22   am
     3    22    24    1
     4    24    25    1
     5    25    26   ar
     6    26    27   ar
     7    27    28   ar
     8    28    29    1
     9    28    30   ar
    10    30    31   ar
    11    24    32    1
    12    32    33   ar
    13    33    34   ar
    14    34    35   ar
    15    35    36   ar
    16    36    37   ar
    17     1    21    1
    18     1     2    1
    19     2     3    1
    20     3     4    1
    21     4    14    1
    22    14    15    1
    23    15    16    1
    24    16    17    1
    25    17    18    1
    26    18    19    1
    27     4     5    1
    28     5     6    1
    29     6     7    1
    30     7     8   ar
    31     8     9   ar
    32     9    10   ar
    33    10    11    1
    34    10    12   ar
    35    12    13   ar
    36    31    25   ar
    37    37    32   ar
    38     6     1    1
    39    13     7   ar
    40    19    14    1
    41    22    23    1
@<TRIPOS>MOLECULE
*****
 37 41 0 0 0
SMALL
GASTEIGER

@<TRIPOS>ATOM
      1 C         142.5339  139.1460  158.5096 C.3     1  UNL1        0.0806
      2 C         142.5153  138.9495  157.0226 C.3     1  UNL1        0.0108
      3 C         142.6997  137.5775  156.4451 C.3     1  UNL1        0.0165
      4 C         142.9027  136.4020  157.3545 C.3     1  UNL1        0.0580
      5 C         142.9212  136.5985  158.8415 C.3     1  UNL1        0.0208
      6 C         142.7369  137.9706  159.4190 C.3     1  UNL1        0.0323
      7 C         142.7555  138.1671  160.9060 C.ar    1  UNL1       -0.0220
      8 C         143.9885  138.6951  161.5774 C.ar    1  UNL1       -0.0038
      9 C         144.0070  138.8916  163.0643 C.ar    1  UNL1        0.0064
     10 C         142.7926  138.5601  163.8798 C.ar    1  UNL1        0.0345
     11 BR        142.8112  138.7566  165.3669 Br      1  UNL1       -0.0490
     12 C         141.5595  138.0320  163.2085 C.ar    1  UNL1        0.0064
     13 C         141.5410  137.8355  161.7216 C.ar    1  UNL1       -0.0038
     14 N         143.0870  135.0299  156.7770 N.3     1  UNL1       -0.2697
     15 C         143.6432  133.9267  157.6277 C.3     1  UNL1        0.1046
     16 C         143.8276  132.5546  157.0501 C.3     1  UNL1        0.1595
     17 O         143.4558  132.2859  155.6219 O.3     1  UNL1       -0.3508
     18 C         142.8996  133.3891  154.7714 C.3     1  UNL1        0.1595
     19 C         142.7153  134.7612  155.3489 C.3     1  UNL1        0.1046
     20 O         143.5386  141.4065  159.3041 O.2     1  UNL1       -0.2751
     21 C         142.3495  140.5181  159.0871 C.2     1  UNL1        0.2228
     22 N         140.9762  141.0017  159.4477 N.am    1  UNL1       -0.2974
     23 H         140.1959  140.4186  159.3053 H       1  UNL1        0.1500
     24 C         140.7919  142.3737  160.0252 C.3     1  UNL1        0.1363
     25 C         140.5727  142.5437  161.4994 C.ar    1  UNL1        0.0013
     26 C         139.5149  143.4836  161.9970 C.ar    1  UNL1       -0.0014
     27 C         139.2958  143.6536  163.4711 C.ar    1  UNL1        0.0111
     28 C         140.1345  142.8835  164.4477 C.ar    1  UNL1        0.0577
     29 CL        139.9153  143.0535  165.9218 Cl      1  UNL1       -0.0822
     30 C         141.1922  141.9436  163.9501 C.ar    1  UNL1        0.0111
     31 C         141.4114  141.7737  162.4760 C.ar    1  UNL1       -0.0014
     32 C         140.8266  143.5757  159.1287 C.ar    1  UNL1        0.1001
     33 C         141.8814  144.6248  159.3212 C.ar    1  UNL1        0.1155
     34 N         141.9161  145.8269  158.4246 N.ar    1  UNL1       -0.2394
     35 C         140.8962  145.9798  157.3355 C.ar    1  UNL1        0.1195
     36 C         139.8414  144.9308  157.1429 C.ar    1  UNL1        0.1192
     37 N         139.8066  143.7288  158.0395 N.ar    1  UNL1       -0.2430
@<TRIPOS>BOND
     1    20    21    2
     2    21    22   am
     3    22    24    1
     4    24    25    1
     5    25    26   ar
     6    26    27   ar
     7    27    28   ar
     8    28    29    1
     9    28    30   ar
    10    30    31   ar
    11    24    32    1
    12    32    33   ar
    13    33    34   ar
    14    34    35   ar
    15    35    36   ar
    16    36    37   ar
    17     1    21    1
    18     1     2    1
    19     2     3    1
    20     3     4    1
    21     4    14    1
    22    14    15    1
    23    15    16    1
    24    16    17    1
    25    17    18    1
    26    18    19    1
    27     4     5    1
    28     5     6    1
    29     6     7    1
    30     7     8   ar
    31     8     9   ar
    32     9    10   ar
    33    10    11    1
    34    10    12   ar
    35    12    13   ar
    36    31    25   ar
    37    37    32   ar
    38     6     1    1
    39    13     7   ar
    40    19    14    1
    41    22    23    1
@<TRIPOS>MOLECULE
*****
 37 41 0 0 0
SMALL
GASTEIGER

@<TRIPOS>ATOM
      1 C         140.7559  143.2345  157.8216 C.3     1  UNL1        0.0806
      2 C         140.6903  143.4136  156.3337 C.3     1  UNL1        0.0108
      3 C         140.3230  144.7475  155.7543 C.3     1  UNL1        0.0165
      4 C         140.0212  145.9024  156.6629 C.3     1  UNL1        0.0580
      5 C         140.0868  145.7232  158.1507 C.3     1  UNL1        0.0208
      6 C         140.4541  144.3893  158.7300 C.3     1  UNL1        0.0323
      7 C         140.5196  144.2102  160.2179 C.ar    1  UNL1       -0.0220
      8 C         139.3269  143.6899  160.9639 C.ar    1  UNL1       -0.0038
      9 C         139.3924  143.5108  162.4517 C.ar    1  UNL1        0.0064
     10 C         140.6508  143.8520  163.1935 C.ar    1  UNL1        0.0345
     11 BR        140.7163  143.6729  164.6814 Br      1  UNL1       -0.0490
     12 C         141.8435  144.3722  162.4474 C.ar    1  UNL1        0.0064
     13 C         141.7780  144.5513  160.9596 C.ar    1  UNL1       -0.0038
     14 N         139.6539  147.2363  156.0835 N.3     1  UNL1       -0.2697
     15 C         138.8076  148.1899  156.8739 C.3     1  UNL1        0.1046
     16 C         138.4403  149.5239  156.2945 C.3     1  UNL1        0.1595
     17 O         138.9193  149.9042  154.9248 O.3     1  UNL1       -0.3508
     18 C         139.7655  148.9507  154.1345 C.3     1  UNL1        0.1595
     19 C         140.1328  147.6167  154.7139 C.3     1  UNL1        0.1046
     20 O         142.5570  141.5862  158.7101 O.2     1  UNL1       -0.2751
     21 C         141.1232  141.9005  158.4009 C.2     1  UNL1        0.2228
     22 N         140.0568  140.8809  158.6711 N.am    1  UNL1       -0.2974
     23 H         139.1158  141.0871  158.4682 H       1  UNL1        0.1500
     24 C         140.4241  139.5469  159.2505 C.3     1  UNL1        0.1363
     25 C         140.1919  139.2721  160.7067 C.ar    1  UNL1        0.0013
     26 C         140.8060  140.1631  161.7454 C.ar    1  UNL1       -0.0014
     27 C         140.5738  139.8883  163.2015 C.ar    1  UNL1        0.0111
     28 C         139.7274  138.7224  163.6191 C.ar    1  UNL1        0.0577
     29 CL        139.4952  138.4475  165.0753 Cl      1  UNL1       -0.0822
     30 C         139.1133  137.8313  162.5804 C.ar    1  UNL1        0.0111
     31 C         139.3455  138.1062  161.1243 C.ar    1  UNL1       -0.0014
     32 C         141.0236  138.4878  158.3736 C.ar    1  UNL1        0.1001
     33 C         142.4278  138.0194  158.6164 C.ar    1  UNL1        0.1155
     34 N         143.0273  136.9603  157.7395 N.ar    1  UNL1       -0.2394
     35 C         142.2226  136.3696  156.6199 C.ar    1  UNL1        0.1195
     36 C         140.8184  136.8380  156.3771 C.ar    1  UNL1        0.1192
     37 N         140.2189  137.8971  157.2540 N.ar    1  UNL1       -0.2430
@<TRIPOS>BOND
     1    20    21    2
     2    21    22   am
     3    22    24    1
     4    24    25    1
     5    25    26   ar
     6    26    27   ar
     7    27    28   ar
     8    28    29    1
     9    28    30   ar
    10    30    31   ar
    11    24    32    1
    12    32    33   ar
    13    33    34   ar
    14    34    35   ar
    15    35    36   ar
    16    36    37   ar
    17     1    21    1
    18     1     2    1
    19     2     3    1
    20     3     4    1
    21     4    14    1
    22    14    15    1
    23    15    16    1
    24    16    17    1
    25    17    18    1
    26    18    19    1
    27     4     5    1
    28     5     6    1
    29     6     7    1
    30     7     8   ar
    31     8     9   ar
    32     9    10   ar
    33    10    11    1
    34    10    12   ar
    35    12    13   ar
    36    31    25   ar
    37    37    32   ar
    38     6     1    1
    39    13     7   ar
    40    19    14    1
    41    22    23    1
@<TRIPOS>MOLECULE
*****
 37 41 0 0 0
SMALL
GASTEIGER

@<TRIPOS>ATOM
      1 C         141.9745  138.8839  161.5086 C.3     1  UNL1        0.0806
      2 C         141.9095  137.6657  162.3815 C.3     1  UNL1        0.0108
      3 C         141.1689  137.7156  163.6849 C.3     1  UNL1        0.0165
      4 C         140.4933  138.9838  164.1156 C.3     1  UNL1        0.0580
      5 C         140.5583  140.2019  163.2427 C.3     1  UNL1        0.0208
      6 C         141.2988  140.1520  161.9392 C.3     1  UNL1        0.0323
      7 C         141.3638  141.3702  161.0664 C.ar    1  UNL1       -0.0220
      8 C         142.5558  142.2782  161.1334 C.ar    1  UNL1       -0.0038
      9 C         142.6207  143.4963  160.2606 C.ar    1  UNL1        0.0064
     10 C         141.4936  143.8064  159.3207 C.ar    1  UNL1        0.0345
     11 BR        141.5585  145.0246  158.4478 Br      1  UNL1       -0.0490
     12 C         140.3016  142.8984  159.2536 C.ar    1  UNL1        0.0064
     13 C         140.2367  141.6803  160.1264 C.ar    1  UNL1       -0.0038
     14 N         139.7527  139.0337  165.4190 N.3     1  UNL1       -0.2697
     15 C         140.2955  139.8431  166.5595 C.3     1  UNL1        0.1046
     16 C         139.5549  139.8930  167.8629 C.3     1  UNL1        0.1595
     17 O         138.2716  139.1336  168.0260 O.3     1  UNL1       -0.3508
     18 C         137.7289  138.3244  166.8856 C.3     1  UNL1        0.1595
     19 C         138.4695  138.2744  165.5821 C.3     1  UNL1        0.1046
     20 O         144.2150  138.8384  160.1941 O.2     1  UNL1       -0.2751
     21 C         142.7150  138.8339  160.2051 C.2     1  UNL1        0.2228
     22 N         141.9557  138.7795  158.9127 N.am    1  UNL1       -0.2974
     23 H         140.9712  138.7765  158.9199 H       1  UNL1        0.1500
     24 C         142.6963  138.7295  157.6092 C.3     1  UNL1        0.1363
     25 C         142.7126  137.4641  156.8039 C.ar    1  UNL1        0.0013
     26 C         142.5276  137.5192  155.3165 C.ar    1  UNL1       -0.0014
     27 C         142.5439  136.2538  154.5113 C.ar    1  UNL1        0.0111
     28 C         142.7453  134.9332  155.1935 C.ar    1  UNL1        0.0577
     29 CL        142.7617  133.6678  154.3882 Cl      1  UNL1       -0.0822
     30 C         142.9304  134.8781  156.6810 C.ar    1  UNL1        0.0111
     31 C         142.9141  136.1435  157.4862 C.ar    1  UNL1       -0.0014
     32 C         143.4205  139.9449  157.1110 C.ar    1  UNL1        0.1001
     33 C         142.6609  141.2069  156.8273 C.ar    1  UNL1        0.1155
     34 N         143.3851  142.4223  156.3291 N.ar    1  UNL1       -0.2394
     35 C         144.8690  142.3758  156.1146 C.ar    1  UNL1        0.1195
     36 C         145.6286  141.1139  156.3983 C.ar    1  UNL1        0.1192
     37 N         144.9044  139.8985  156.8965 N.ar    1  UNL1       -0.2430
@<TRIPOS>BOND
     1    20    21    2
     2    21    22   am
     3    22    24    1
     4    24    25    1
     5    25    26   ar
     6    26    27   ar
     7    27    28   ar
     8    28    29    1
     9    28    30   ar
    10    30    31   ar
    11    24    32    1
    12    32    33   ar
    13    33    34   ar
    14    34    35   ar
    15    35    36   ar
    16    36    37   ar
    17     1    21    1
    18     1     2    1
    19     2     3    1
    20     3     4    1
    21     4    14    1
    22    14    15    1
    23    15    16    1
    24    16    17    1
    25    17    18    1
    26    18    19    1
    27     4     5    1
    28     5     6    1
    29     6     7    1
    30     7     8   ar
    31     8     9   ar
    32     9    10   ar
    33    10    11    1
    34    10    12   ar
    35    12    13   ar
    36    31    25   ar
    37    37    32   ar
    38     6     1    1
    39    13     7   ar
    40    19    14    1
    41    22    23    1
@<TRIPOS>MOLECULE
*****
 37 41 0 0 0
SMALL
GASTEIGER

@<TRIPOS>ATOM
      1 C         141.5993  138.7305  161.4599 C.3     1  UNL1        0.0806
      2 C         141.4687  137.5267  162.3453 C.3     1  UNL1        0.0108
      3 C         140.8528  137.6602  163.7065 C.3     1  UNL1        0.0165
      4 C         140.3674  138.9974  164.1822 C.3     1  UNL1        0.0580
      5 C         140.4981  140.2011  163.2968 C.3     1  UNL1        0.0208
      6 C         141.1140  140.0677  161.9357 C.3     1  UNL1        0.0323
      7 C         141.2446  141.2715  161.0502 C.ar    1  UNL1       -0.0220
      8 C         142.5508  142.0044  160.9688 C.ar    1  UNL1       -0.0038
      9 C         142.6813  143.2082  160.0834 C.ar    1  UNL1        0.0064
     10 C         141.5057  143.6790  159.2795 C.ar    1  UNL1        0.0345
     11 BR        141.6363  144.8828  158.3941 Br      1  UNL1       -0.0490
     12 C         140.1995  142.9460  159.3610 C.ar    1  UNL1        0.0064
     13 C         140.0690  141.7423  160.2463 C.ar    1  UNL1       -0.0038
     14 N         139.7515  139.1309  165.5434 N.3     1  UNL1       -0.2697
     15 C         140.4922  139.8448  166.6351 C.3     1  UNL1        0.1046
     16 C         139.8763  139.9783  167.9963 C.3     1  UNL1        0.1595
     17 O         138.5196  139.3978  168.2658 O.3     1  UNL1       -0.3508
     18 C         137.7790  138.6838  167.1741 C.3     1  UNL1        0.1595
     19 C         138.3949  138.5504  165.8129 C.3     1  UNL1        0.1046
     20 O         143.7055  138.6629  159.9401 O.2     1  UNL1       -0.2751
     21 C         142.2153  138.5971  160.0987 C.2     1  UNL1        0.2228
     22 N         141.3411  138.3979  158.8962 N.am    1  UNL1       -0.2974
     23 H         140.3631  138.3547  159.0003 H       1  UNL1        0.1500
     24 C         141.9570  138.2644  157.5350 C.3     1  UNL1        0.1363
     25 C         142.5612  139.4625  156.8644 C.ar    1  UNL1        0.0013
     26 C         143.8970  139.3511  156.1912 C.ar    1  UNL1       -0.0014
     27 C         144.5011  140.5492  155.5207 C.ar    1  UNL1        0.0111
     28 C         143.7695  141.8587  155.5234 C.ar    1  UNL1        0.0577
     29 CL        144.3736  143.0568  154.8529 Cl      1  UNL1       -0.0822
     30 C         142.4337  141.9701  156.1967 C.ar    1  UNL1        0.0111
     31 C         141.8296  140.7720  156.8672 C.ar    1  UNL1       -0.0014
     32 C         141.9688  136.9329  156.8444 C.ar    1  UNL1        0.1001
     33 C         140.9390  136.6209  155.7993 C.ar    1  UNL1        0.1155
     34 N         140.9508  135.2894  155.1087 N.ar    1  UNL1       -0.2394
     35 C         141.9924  134.2699  155.4631 C.ar    1  UNL1        0.1195
     36 C         143.0223  134.5819  156.5081 C.ar    1  UNL1        0.1192
     37 N         143.0105  135.9134  157.1988 N.ar    1  UNL1       -0.2430
@<TRIPOS>BOND
     1    20    21    2
     2    21    22   am
     3    22    24    1
     4    24    25    1
     5    25    26   ar
     6    26    27   ar
     7    27    28   ar
     8    28    29    1
     9    28    30   ar
    10    30    31   ar
    11    24    32    1
    12    32    33   ar
    13    33    34   ar
    14    34    35   ar
    15    35    36   ar
    16    36    37   ar
    17     1    21    1
    18     1     2    1
    19     2     3    1
    20     3     4    1
    21     4    14    1
    22    14    15    1
    23    15    16    1
    24    16    17    1
    25    17    18    1
    26    18    19    1
    27     4     5    1
    28     5     6    1
    29     6     7    1
    30     7     8   ar
    31     8     9   ar
    32     9    10   ar
    33    10    11    1
    34    10    12   ar
    35    12    13   ar
    36    31    25   ar
    37    37    32   ar
    38     6     1    1
    39    13     7   ar
    40    19    14    1
    41    22    23    1
@<TRIPOS>MOLECULE
*****
 37 41 0 0 0
SMALL
GASTEIGER

@<TRIPOS>ATOM
      1 C         142.5807  139.8276  159.7372 C.3     1  UNL1        0.0806
      2 C         143.2955  140.1414  158.4563 C.3     1  UNL1        0.0108
      3 C         143.3698  139.1124  157.3674 C.3     1  UNL1        0.0165
      4 C         142.7294  137.7696  157.5595 C.3     1  UNL1        0.0580
      5 C         142.0147  137.4559  158.8404 C.3     1  UNL1        0.0208
      6 C         141.9403  138.4849  159.9292 C.3     1  UNL1        0.0323
      7 C         141.2255  138.1711  161.2101 C.ar    1  UNL1       -0.0220
      8 C         142.0095  137.8235  162.4408 C.ar    1  UNL1       -0.0038
      9 C         141.2947  137.5097  163.7216 C.ar    1  UNL1        0.0064
     10 C         139.7959  137.5436  163.7718 C.ar    1  UNL1        0.0345
     11 BR        139.0811  137.2298  165.0527 Br      1  UNL1       -0.0490
     12 C         139.0119  137.8912  162.5411 C.ar    1  UNL1        0.0064
     13 C         139.7267  138.2049  161.2603 C.ar    1  UNL1       -0.0038
     14 N         142.8038  136.7406  156.4706 N.3     1  UNL1       -0.2697
     15 C         142.2404  137.0425  155.1136 C.3     1  UNL1        0.1046
     16 C         142.3148  136.0135  154.0247 C.3     1  UNL1        0.1595
     17 O         142.9525  134.6826  154.2929 O.3     1  UNL1       -0.3508
     18 C         143.5159  134.3807  155.6499 C.3     1  UNL1        0.1595
     19 C         143.4415  135.4097  156.7388 C.3     1  UNL1        0.1046
     20 O         143.7422  141.5969  161.2441 O.2     1  UNL1       -0.2751
     21 C         142.5063  140.8567  160.8260 C.2     1  UNL1        0.2228
     22 N         141.1961  141.1455  161.4968 N.am    1  UNL1       -0.2974
     23 H         140.3850  140.6596  161.2224 H       1  UNL1        0.1500
     24 C         141.1217  142.1745  162.5857 C.3     1  UNL1        0.1363
     25 C         141.5300  141.8174  163.9842 C.ar    1  UNL1        0.0013
     26 C         142.8077  142.3588  164.5539 C.ar    1  UNL1       -0.0014
     27 C         143.2159  142.0017  165.9523 C.ar    1  UNL1        0.0111
     28 C         142.3465  141.1032  166.7812 C.ar    1  UNL1        0.0577
     29 CL        142.7548  140.7461  168.1797 Cl      1  UNL1       -0.0822
     30 C         141.0689  140.5619  166.2115 C.ar    1  UNL1        0.0111
     31 C         140.6606  140.9189  164.8130 C.ar    1  UNL1       -0.0014
     32 C         140.6391  143.5605  162.2760 C.ar    1  UNL1        0.1001
     33 C         139.7312  144.2705  163.2361 C.ar    1  UNL1        0.1155
     34 N         139.2485  145.6566  162.9264 N.ar    1  UNL1       -0.2394
     35 C         139.6738  146.3326  161.6567 C.ar    1  UNL1        0.1195
     36 C         140.5817  145.6226  160.6967 C.ar    1  UNL1        0.1192
     37 N         141.0643  144.2366  161.0063 N.ar    1  UNL1       -0.2430
@<TRIPOS>BOND
     1    20    21    2
     2    21    22   am
     3    22    24    1
     4    24    25    1
     5    25    26   ar
     6    26    27   ar
     7    27    28   ar
     8    28    29    1
     9    28    30   ar
    10    30    31   ar
    11    24    32    1
    12    32    33   ar
    13    33    34   ar
    14    34    35   ar
    15    35    36   ar
    16    36    37   ar
    17     1    21    1
    18     1     2    1
    19     2     3    1
    20     3     4    1
    21     4    14    1
    22    14    15    1
    23    15    16    1
    24    16    17    1
    25    17    18    1
    26    18    19    1
    27     4     5    1
    28     5     6    1
    29     6     7    1
    30     7     8   ar
    31     8     9   ar
    32     9    10   ar
    33    10    11    1
    34    10    12   ar
    35    12    13   ar
    36    31    25   ar
    37    37    32   ar
    38     6     1    1
    39    13     7   ar
    40    19    14    1
    41    22    23    1
@<TRIPOS>MOLECULE
*****
 37 41 0 0 0
SMALL
GASTEIGER

@<TRIPOS>ATOM
      1 C         142.2173  139.0391  158.7864 C.3     1  UNL1        0.0806
      2 C         142.1224  138.8275  157.3044 C.3     1  UNL1        0.0108
      3 C         142.4545  137.4886  156.7153 C.3     1  UNL1        0.0165
      4 C         142.8814  136.3613  157.6081 C.3     1  UNL1        0.0580
      5 C         142.9763  136.5730  159.0900 C.3     1  UNL1        0.0208
      6 C         142.6442  137.9119  159.6792 C.3     1  UNL1        0.0323
      7 C         142.7390  138.1235  161.1612 C.ar    1  UNL1       -0.0220
      8 C         144.0091  138.6460  161.7644 C.ar    1  UNL1       -0.0038
      9 C         144.1039  138.8576  163.2464 C.ar    1  UNL1        0.0064
     10 C         142.9286  138.5467  164.1251 C.ar    1  UNL1        0.0345
     11 BR        143.0235  138.7584  165.6071 Br      1  UNL1       -0.0490
     12 C         141.6586  138.0243  163.5219 C.ar    1  UNL1        0.0064
     13 C         141.5638  137.8127  162.0399 C.ar    1  UNL1       -0.0038
     14 N         143.2135  135.0224  157.0190 N.3     1  UNL1       -0.2697
     15 C         143.0073  134.7758  155.5538 C.3     1  UNL1        0.1046
     16 C         143.3393  133.4369  154.9646 C.3     1  UNL1        0.1595
     17 O         143.8776  132.3447  155.8406 O.3     1  UNL1       -0.3508
     18 C         144.0838  132.5914  157.3057 C.3     1  UNL1        0.1595
     19 C         143.7518  133.9302  157.8949 C.3     1  UNL1        0.1046
     20 O         140.4768  140.6868  159.7895 O.2     1  UNL1       -0.2751
     21 C         141.8852  140.3780  159.3756 C.2     1  UNL1        0.2228
     22 N         142.9614  141.4080  159.5509 N.am    1  UNL1       -0.2974
     23 H         143.8857  141.2053  159.2793 H       1  UNL1        0.1500
     24 C         142.6293  142.7469  160.1401 C.3     1  UNL1        0.1363
     25 C         141.9648  143.7938  159.2959 C.ar    1  UNL1        0.0013
     26 C         140.7505  144.5103  159.8078 C.ar    1  UNL1       -0.0014
     27 C         140.0861  145.5572  158.9637 C.ar    1  UNL1        0.0111
     28 C         140.6359  145.8874  157.6077 C.ar    1  UNL1        0.0577
     29 CL        139.9713  146.9343  156.7635 Cl      1  UNL1       -0.0822
     30 C         141.8501  145.1709  157.0958 C.ar    1  UNL1        0.0111
     31 C         142.5146  144.1240  157.9400 C.ar    1  UNL1       -0.0014
     32 C         142.9618  143.0389  161.5733 C.ar    1  UNL1        0.1001
     33 C         142.5740  142.0654  162.6466 C.ar    1  UNL1        0.1155
     34 N         142.9065  142.3575  164.0798 N.ar    1  UNL1       -0.2394
     35 C         143.6267  143.6231  164.4398 C.ar    1  UNL1        0.1195
     36 C         144.0145  144.5966  163.3665 C.ar    1  UNL1        0.1192
     37 N         143.6820  144.3045  161.9333 N.ar    1  UNL1       -0.2430
@<TRIPOS>BOND
     1    20    21    2
     2    21    22   am
     3    22    24    1
     4    24    25    1
     5    25    26   ar
     6    26    27   ar
     7    27    28   ar
     8    28    29    1
     9    28    30   ar
    10    30    31   ar
    11    24    32    1
    12    32    33   ar
    13    33    34   ar
    14    34    35   ar
    15    35    36   ar
    16    36    37   ar
    17     1    21    1
    18     1     2    1
    19     2     3    1
    20     3     4    1
    21     4    14    1
    22    14    15    1
    23    15    16    1
    24    16    17    1
    25    17    18    1
    26    18    19    1
    27     4     5    1
    28     5     6    1
    29     6     7    1
    30     7     8   ar
    31     8     9   ar
    32     9    10   ar
    33    10    11    1
    34    10    12   ar
    35    12    13   ar
    36    31    25   ar
    37    37    32   ar
    38     6     1    1
    39    13     7   ar
    40    19    14    1
    41    22    23    1
@<TRIPOS>MOLECULE
*****
 37 41 0 0 0
SMALL
GASTEIGER

@<TRIPOS>ATOM
      1 C         139.5092  140.8013  159.9223 C.3     1  UNL1        0.0806
      2 C         138.5551  140.0732  159.0224 C.3     1  UNL1        0.0108
      3 C         137.9868  140.7623  157.8173 C.3     1  UNL1        0.0165
      4 C         138.3726  142.1794  157.5121 C.3     1  UNL1        0.0580
      5 C         139.3266  142.9074  158.4120 C.3     1  UNL1        0.0208
      6 C         139.8949  142.2183  159.6171 C.3     1  UNL1        0.0323
      7 C         140.8489  142.9464  160.5170 C.ar    1  UNL1       -0.0220
      8 C         142.3116  142.6157  160.4841 C.ar    1  UNL1       -0.0038
      9 C         143.2656  143.3437  161.3840 C.ar    1  UNL1        0.0064
     10 C         142.7569  144.4025  162.3168 C.ar    1  UNL1        0.0345
     11 BR        143.7109  145.1306  163.2167 Br      1  UNL1       -0.0490
     12 C         141.2942  144.7332  162.3498 C.ar    1  UNL1        0.0064
     13 C         140.3402  144.0052  161.4499 C.ar    1  UNL1       -0.0038
     14 N         137.8043  142.8685  156.3070 N.3     1  UNL1       -0.2697
     15 C         136.7923  142.1675  155.4499 C.3     1  UNL1        0.1046
     16 C         136.2240  142.8565  154.2448 C.3     1  UNL1        0.1595
     17 O         136.6677  144.2466  153.8968 O.3     1  UNL1       -0.3508
     18 C         137.6796  144.9475  154.7539 C.3     1  UNL1        0.1595
     19 C         138.2479  144.2584  155.9590 C.3     1  UNL1        0.1046
     20 O         140.6819  138.7458  160.9946 O.2     1  UNL1       -0.2751
     21 C         140.0774  140.1123  161.1274 C.2     1  UNL1        0.2228
     22 N         140.0413  140.7896  162.4653 N.am    1  UNL1       -0.2974
     23 H         139.6446  141.6864  162.5524 H       1  UNL1        0.1500
     24 C         140.6096  140.1005  163.6704 C.3     1  UNL1        0.1363
     25 C         139.6966  139.4092  164.6391 C.ar    1  UNL1        0.0013
     26 C         139.0784  140.1798  165.7678 C.ar    1  UNL1       -0.0014
     27 C         138.1654  139.4884  166.7365 C.ar    1  UNL1        0.0111
     28 C         137.8706  138.0264  166.5766 C.ar    1  UNL1        0.0577
     29 CL        136.9576  137.3350  167.5453 Cl      1  UNL1       -0.0822
     30 C         138.4889  137.2557  165.4479 C.ar    1  UNL1        0.0111
     31 C         139.4018  137.9471  164.4792 C.ar    1  UNL1       -0.0014
     32 C         142.0908  140.1028  163.9067 C.ar    1  UNL1        0.1001
     33 C         142.7552  141.3140  164.4912 C.ar    1  UNL1        0.1155
     34 N         144.2365  141.3163  164.7275 N.ar    1  UNL1       -0.2394
     35 C         145.0534  140.1074  164.3794 C.ar    1  UNL1        0.1195
     36 C         144.3890  138.8962  163.7949 C.ar    1  UNL1        0.1192
     37 N         142.9078  138.8939  163.5585 N.ar    1  UNL1       -0.2430
@<TRIPOS>BOND
     1    20    21    2
     2    21    22   am
     3    22    24    1
     4    24    25    1
     5    25    26   ar
     6    26    27   ar
     7    27    28   ar
     8    28    29    1
     9    28    30   ar
    10    30    31   ar
    11    24    32    1
    12    32    33   ar
    13    33    34   ar
    14    34    35   ar
    15    35    36   ar
    16    36    37   ar
    17     1    21    1
    18     1     2    1
    19     2     3    1
    20     3     4    1
    21     4    14    1
    22    14    15    1
    23    15    16    1
    24    16    17    1
    25    17    18    1
    26    18    19    1
    27     4     5    1
    28     5     6    1
    29     6     7    1
    30     7     8   ar
    31     8     9   ar
    32     9    10   ar
    33    10    11    1
    34    10    12   ar
    35    12    13   ar
    36    31    25   ar
    37    37    32   ar
    38     6     1    1
    39    13     7   ar
    40    19    14    1
    41    22    23    1
