@<TRIPOS>MOLECULE
*****
 21 23 0 0 0
SMALL
GASTEIGER

@<TRIPOS>ATOM
      1 C         142.0318  141.7400  167.9218 C.3     1  UNL1        0.0317
      2 C         141.2978  142.5317  166.8806 C.2     1  UNL1       -0.0151
      3 C         140.1509  142.2331  165.9610 C.2     1  UNL1        0.0275
      4 N         139.5471  143.1813  164.9678 N.pl3   1  UNL1       -0.3105
      5 C         139.9843  144.5946  164.7198 C.3     1  UNL1        0.1119
      6 C         138.4295  142.4681  164.2662 C.3     1  UNL1        0.0736
      7 C         137.5529  143.0430  163.1934 C.3     1  UNL1        0.0214
      8 C         138.3425  141.0791  164.8258 C.3     1  UNL1        0.0331
      9 C         139.4064  140.9339  165.8732 C.3     1  UNL1        0.0699
     10 C         140.3561  140.4979  166.9494 C.ar    1  UNL1       -0.0140
     11 C         141.6653  139.8644  166.5827 C.ar    1  UNL1       -0.0036
     12 C         142.6150  139.4285  167.6588 C.ar    1  UNL1       -0.0003
     13 C         142.2554  139.6261  169.1016 C.ar    1  UNL1       -0.0000
     14 C         140.9461  140.2596  169.4683 C.ar    1  UNL1       -0.0003
     15 C         139.9965  140.6955  168.3921 C.ar    1  UNL1       -0.0036
     16 C         138.8604  139.5435  166.0104 C.ar    1  UNL1       -0.0140
     17 C         139.3144  138.4637  165.0735 C.ar    1  UNL1       -0.0036
     18 C         138.7685  137.0732  165.2106 C.ar    1  UNL1       -0.0003
     19 C         137.7685  136.7627  166.2847 C.ar    1  UNL1       -0.0000
     20 C         137.3145  137.8425  167.2216 C.ar    1  UNL1       -0.0003
     21 C         137.8605  139.2330  167.0845 C.ar    1  UNL1       -0.0036
@<TRIPOS>BOND
     1     1     2    1
     2     2     3    2
     3     3     4    1
     4     4     5    1
     5     4     6    1
     6     6     7    1
     7     6     8    1
     8     8     9    1
     9     9    10    1
    10    10    11   ar
    11    11    12   ar
    12    12    13   ar
    13    13    14   ar
    14    14    15   ar
    15     9    16    1
    16    16    17   ar
    17    17    18   ar
    18    18    19   ar
    19    19    20   ar
    20    20    21   ar
    21     9     3    1
    22    15    10   ar
    23    21    16   ar
@<TRIPOS>MOLECULE
*****
 21 23 0 0 0
SMALL
GASTEIGER

@<TRIPOS>ATOM
      1 C         139.9510  142.2172  163.4529 C.3     1  UNL1        0.0317
      2 C         141.0058  141.1624  163.6099 C.2     1  UNL1       -0.0151
      3 C         141.6070  140.4574  164.7896 C.2     1  UNL1        0.0275
      4 N         142.6770  139.4074  164.7379 N.pl3   1  UNL1       -0.3105
      5 C         143.3336  138.8780  163.4975 C.3     1  UNL1        0.1119
      6 C         142.9751  138.9798  166.1444 C.3     1  UNL1        0.0736
      7 C         143.9821  137.9477  166.5574 C.3     1  UNL1        0.0214
      8 C         142.0894  139.7654  167.0653 C.3     1  UNL1        0.0331
      9 C         141.2438  140.6787  166.2280 C.3     1  UNL1        0.0699
     10 C         140.2802  141.6821  165.6669 C.ar    1  UNL1       -0.0140
     11 C         138.8921  141.2584  165.2881 C.ar    1  UNL1       -0.0036
     12 C         137.9286  142.2617  164.7270 C.ar    1  UNL1       -0.0003
     13 C         138.3532  143.6888  164.5447 C.ar    1  UNL1       -0.0000
     14 C         139.7414  144.1125  164.9235 C.ar    1  UNL1       -0.0003
     15 C         140.7049  143.1091  165.4846 C.ar    1  UNL1       -0.0036
     16 C         140.6792  141.1097  167.5491 C.ar    1  UNL1       -0.0140
     17 C         141.0075  142.4664  168.0983 C.ar    1  UNL1       -0.0036
     18 C         140.4428  142.8975  169.4195 C.ar    1  UNL1       -0.0003
     19 C         139.5499  141.9719  170.1914 C.ar    1  UNL1       -0.0000
     20 C         139.2217  140.6152  169.6423 C.ar    1  UNL1       -0.0003
     21 C         139.7863  140.1841  168.3211 C.ar    1  UNL1       -0.0036
@<TRIPOS>BOND
     1     1     2    1
     2     2     3    2
     3     3     4    1
     4     4     5    1
     5     4     6    1
     6     6     7    1
     7     6     8    1
     8     8     9    1
     9     9    10    1
    10    10    11   ar
    11    11    12   ar
    12    12    13   ar
    13    13    14   ar
    14    14    15   ar
    15     9    16    1
    16    16    17   ar
    17    17    18   ar
    18    18    19   ar
    19    19    20   ar
    20    20    21   ar
    21     9     3    1
    22    15    10   ar
    23    21    16   ar
@<TRIPOS>MOLECULE
*****
 21 23 0 0 0
SMALL
GASTEIGER

@<TRIPOS>ATOM
      1 C         140.3670  141.2082  169.8164 C.3     1  UNL1        0.0317
      2 C         139.6160  140.4136  168.7896 C.2     1  UNL1       -0.0151
      3 C         139.6463  140.3545  167.2910 C.2     1  UNL1        0.0275
      4 N         138.7958  139.4722  166.4260 N.pl3   1  UNL1       -0.3105
      5 C         137.7658  138.4939  166.9077 C.3     1  UNL1        0.1119
      6 C         139.1563  139.7398  164.9948 C.3     1  UNL1        0.0736
      7 C         138.5500  139.0762  163.7940 C.3     1  UNL1        0.0214
      8 C         140.2295  140.7876  164.9752 C.3     1  UNL1        0.0331
      9 C         140.5323  141.1675  166.3943 C.3     1  UNL1        0.0699
     10 C         141.0428  141.7425  167.6823 C.ar    1  UNL1       -0.0140
     11 C         140.4041  142.9703  168.2607 C.ar    1  UNL1       -0.0036
     12 C         140.9146  143.5453  169.5487 C.ar    1  UNL1       -0.0003
     13 C         142.0637  142.8925  170.2581 C.ar    1  UNL1       -0.0000
     14 C         142.7024  141.6647  169.6797 C.ar    1  UNL1       -0.0003
     15 C         142.1919  141.0898  168.3918 C.ar    1  UNL1       -0.0036
     16 C         141.5251  142.1007  165.7669 C.ar    1  UNL1       -0.0140
     17 C         142.9951  141.8406  165.9132 C.ar    1  UNL1       -0.0036
     18 C         143.9879  142.7738  165.2858 C.ar    1  UNL1       -0.0003
     19 C         143.5107  143.9670  164.5121 C.ar    1  UNL1       -0.0000
     20 C         142.0407  144.2270  164.3659 C.ar    1  UNL1       -0.0003
     21 C         141.0478  143.2938  164.9933 C.ar    1  UNL1       -0.0036
@<TRIPOS>BOND
     1     1     2    1
     2     2     3    2
     3     3     4    1
     4     4     5    1
     5     4     6    1
     6     6     7    1
     7     6     8    1
     8     8     9    1
     9     9    10    1
    10    10    11   ar
    11    11    12   ar
    12    12    13   ar
    13    13    14   ar
    14    14    15   ar
    15     9    16    1
    16    16    17   ar
    17    17    18   ar
    18    18    19   ar
    19    19    20   ar
    20    20    21   ar
    21     9     3    1
    22    15    10   ar
    23    21    16   ar
@<TRIPOS>MOLECULE
*****
 21 23 0 0 0
SMALL
GASTEIGER

@<TRIPOS>ATOM
      1 C         141.4493  140.3113  169.6986 C.3     1  UNL1        0.0317
      2 C         142.2041  139.6261  168.5983 C.2     1  UNL1       -0.0151
      3 C         142.1587  139.6998  167.1008 C.2     1  UNL1        0.0275
      4 N         143.0164  138.9148  166.1530 N.pl3   1  UNL1       -0.3105
      5 C         144.0700  137.9183  166.5364 C.3     1  UNL1        0.1119
      6 C         142.6354  139.3012  164.7547 C.3     1  UNL1        0.0736
      7 C         143.2412  138.7591  163.4941 C.3     1  UNL1        0.0214
      8 C         141.5424  140.3250  164.8381 C.3     1  UNL1        0.0331
      9 C         141.2477  140.5713  166.2881 C.3     1  UNL1        0.0699
     10 C         140.7404  141.0194  167.6268 C.ar    1  UNL1       -0.0140
     11 C         141.3530  142.2116  168.3002 C.ar    1  UNL1       -0.0036
     12 C         140.8456  142.6596  169.6388 C.ar    1  UNL1       -0.0003
     13 C         139.7258  141.9156  170.3039 C.ar    1  UNL1       -0.0000
     14 C         139.1133  140.7235  169.6304 C.ar    1  UNL1       -0.0003
     15 C         139.6206  140.2754  168.2919 C.ar    1  UNL1       -0.0036
     16 C         140.2307  141.5366  165.7553 C.ar    1  UNL1       -0.0140
     17 C         138.9472  141.0266  165.1701 C.ar    1  UNL1       -0.0036
     18 C         137.9300  141.9918  164.6372 C.ar    1  UNL1       -0.0003
     19 C         138.1965  143.4670  164.6897 C.ar    1  UNL1       -0.0000
     20 C         139.4800  143.9770  165.2749 C.ar    1  UNL1       -0.0003
     21 C         140.4971  143.0118  165.8077 C.ar    1  UNL1       -0.0036
@<TRIPOS>BOND
     1     1     2    1
     2     2     3    2
     3     3     4    1
     4     4     5    1
     5     4     6    1
     6     6     7    1
     7     6     8    1
     8     8     9    1
     9     9    10    1
    10    10    11   ar
    11    11    12   ar
    12    12    13   ar
    13    13    14   ar
    14    14    15   ar
    15     9    16    1
    16    16    17   ar
    17    17    18   ar
    18    18    19   ar
    19    19    20   ar
    20    20    21   ar
    21     9     3    1
    22    15    10   ar
    23    21    16   ar
@<TRIPOS>MOLECULE
*****
 21 23 0 0 0
SMALL
GASTEIGER

@<TRIPOS>ATOM
      1 C         141.6346  139.9660  168.3250 C.3     1  UNL1        0.0317
      2 C         142.4807  139.8694  167.0903 C.2     1  UNL1       -0.0151
      3 C         142.3936  140.4687  165.7179 C.2     1  UNL1        0.0275
      4 N         143.3620  140.2442  164.5946 N.pl3   1  UNL1       -0.3105
      5 C         144.5877  139.3810  164.6465 C.3     1  UNL1        0.1119
      6 C         142.8897  141.0345  163.4105 C.3     1  UNL1        0.0736
      7 C         143.5600  141.1003  162.0702 C.3     1  UNL1        0.0214
      8 C         141.6293  141.7474  163.8018 C.3     1  UNL1        0.0331
      9 C         141.3227  141.3977  165.2279 C.3     1  UNL1        0.0699
     10 C         140.7679  141.2352  166.6121 C.ar    1  UNL1       -0.0140
     11 C         141.1536  142.2011  167.6928 C.ar    1  UNL1       -0.0036
     12 C         140.5989  142.0386  169.0769 C.ar    1  UNL1       -0.0003
     13 C         139.6583  140.9101  169.3802 C.ar    1  UNL1       -0.0000
     14 C         139.2726  139.9442  168.2994 C.ar    1  UNL1       -0.0003
     15 C         139.8273  140.1068  166.9153 C.ar    1  UNL1       -0.0036
     16 C         140.1358  142.2927  165.0272 C.ar    1  UNL1       -0.0140
     17 C         138.8287  141.7143  164.5722 C.ar    1  UNL1       -0.0036
     18 C         137.6418  142.6094  164.3716 C.ar    1  UNL1       -0.0003
     19 C         137.7619  144.0828  164.6259 C.ar    1  UNL1       -0.0000
     20 C         139.0690  144.6612  165.0809 C.ar    1  UNL1       -0.0003
     21 C         140.2560  143.7661  165.2816 C.ar    1  UNL1       -0.0036
@<TRIPOS>BOND
     1     1     2    1
     2     2     3    2
     3     3     4    1
     4     4     5    1
     5     4     6    1
     6     6     7    1
     7     6     8    1
     8     8     9    1
     9     9    10    1
    10    10    11   ar
    11    11    12   ar
    12    12    13   ar
    13    13    14   ar
    14    14    15   ar
    15     9    16    1
    16    16    17   ar
    17    17    18   ar
    18    18    19   ar
    19    19    20   ar
    20    20    21   ar
    21     9     3    1
    22    15    10   ar
    23    21    16   ar
@<TRIPOS>MOLECULE
*****
 21 23 0 0 0
SMALL
GASTEIGER

@<TRIPOS>ATOM
      1 C         142.6428  141.5603  169.2330 C.3     1  UNL1        0.0317
      2 C         143.1588  142.1636  167.9603 C.2     1  UNL1       -0.0151
      3 C         142.8791  141.9255  166.5059 C.2     1  UNL1        0.0275
      4 N         143.5135  142.6501  165.3559 N.pl3   1  UNL1       -0.3105
      5 C         144.5389  143.7400  165.4583 C.3     1  UNL1        0.1119
      6 C         142.9424  142.0934  164.0855 C.3     1  UNL1        0.0736
      7 C         143.2965  142.5288  162.6945 C.3     1  UNL1        0.0214
      8 C         141.9551  141.0247  164.4503 C.3     1  UNL1        0.0331
      9 C         141.9160  140.9209  165.9462 C.3     1  UNL1        0.0699
     10 C         141.6644  140.5928  167.3882 C.ar    1  UNL1       -0.0140
     11 C         142.4849  139.5395  168.0718 C.ar    1  UNL1       -0.0036
     12 C         142.2334  139.2115  169.5137 C.ar    1  UNL1       -0.0003
     13 C         141.1613  139.9366  170.2719 C.ar    1  UNL1       -0.0000
     14 C         140.3409  140.9899  169.5883 C.ar    1  UNL1       -0.0003
     15 C         140.5924  141.3179  168.1464 C.ar    1  UNL1       -0.0036
     16 C         140.9003  139.8478  165.6880 C.ar    1  UNL1       -0.0140
     17 C         141.3311  138.5288  165.1182 C.ar    1  UNL1       -0.0036
     18 C         140.3154  137.4556  164.8600 C.ar    1  UNL1       -0.0003
     19 C         138.8688  137.7014  165.1715 C.ar    1  UNL1       -0.0000
     20 C         138.4380  139.0204  165.7413 C.ar    1  UNL1       -0.0003
     21 C         139.4537  140.0936  165.9996 C.ar    1  UNL1       -0.0036
@<TRIPOS>BOND
     1     1     2    1
     2     2     3    2
     3     3     4    1
     4     4     5    1
     5     4     6    1
     6     6     7    1
     7     6     8    1
     8     8     9    1
     9     9    10    1
    10    10    11   ar
    11    11    12   ar
    12    12    13   ar
    13    13    14   ar
    14    14    15   ar
    15     9    16    1
    16    16    17   ar
    17    17    18   ar
    18    18    19   ar
    19    19    20   ar
    20    20    21   ar
    21     9     3    1
    22    15    10   ar
    23    21    16   ar
@<TRIPOS>MOLECULE
*****
 21 23 0 0 0
SMALL
GASTEIGER

@<TRIPOS>ATOM
      1 C         140.1093  144.5180  163.7138 C.3     1  UNL1        0.0317
      2 C         141.4337  143.8284  163.5717 C.2     1  UNL1       -0.0151
      3 C         141.9756  142.5077  164.0325 C.2     1  UNL1        0.0275
      4 N         143.3604  141.9877  163.7836 N.pl3   1  UNL1       -0.3105
      5 C         144.4464  142.6969  163.0303 C.3     1  UNL1        0.1119
      6 C         143.4684  140.6338  164.4203 C.3     1  UNL1        0.0736
      7 C         144.6815  139.7516  164.4155 C.3     1  UNL1        0.0214
      8 C         142.1505  140.3172  165.0627 C.3     1  UNL1        0.0331
      9 C         141.2279  141.4753  164.8230 C.3     1  UNL1        0.0699
     10 C         140.0995  142.4607  164.7452 C.ar    1  UNL1       -0.0140
     11 C         139.9541  143.5190  165.7982 C.ar    1  UNL1       -0.0036
     12 C         138.8258  144.5043  165.7203 C.ar    1  UNL1       -0.0003
     13 C         137.8430  144.4313  164.5895 C.ar    1  UNL1       -0.0000
     14 C         137.9884  143.3730  163.5366 C.ar    1  UNL1       -0.0003
     15 C         139.1167  142.3877  163.6144 C.ar    1  UNL1       -0.0036
     16 C         140.2442  140.6489  165.5972 C.ar    1  UNL1       -0.0140
     17 C         139.2594  139.7805  164.8720 C.ar    1  UNL1       -0.0036
     18 C         138.2757  138.9540  165.6463 C.ar    1  UNL1       -0.0003
     19 C         138.2769  138.9960  167.1457 C.ar    1  UNL1       -0.0000
     20 C         139.2617  139.8644  167.8709 C.ar    1  UNL1       -0.0003
     21 C         140.2454  140.6909  167.0967 C.ar    1  UNL1       -0.0036
@<TRIPOS>BOND
     1     1     2    1
     2     2     3    2
     3     3     4    1
     4     4     5    1
     5     4     6    1
     6     6     7    1
     7     6     8    1
     8     8     9    1
     9     9    10    1
    10    10    11   ar
    11    11    12   ar
    12    12    13   ar
    13    13    14   ar
    14    14    15   ar
    15     9    16    1
    16    16    17   ar
    17    17    18   ar
    18    18    19   ar
    19    19    20   ar
    20    20    21   ar
    21     9     3    1
    22    15    10   ar
    23    21    16   ar
