@<TRIPOS>MOLECULE
*****
 24 25 0 0 0
SMALL
GASTEIGER

@<TRIPOS>ATOM
      1 C         142.2394  140.5293  166.1194 C.ar    1  UNL1        0.1327
      2 N         143.5134  140.5293  165.3277 N.ar    1  UNL1       -0.1993
      3 C         143.7009  139.5483  164.2085 C.ar    1  UNL1        0.2148
      4 N         144.9750  139.5483  163.4167 N.pl3   1  UNL1       -0.3274
      5 N         142.6144  138.5673  163.8811 N.ar    1  UNL1       -0.2139
      6 C         141.3404  138.5673  164.6728 C.ar    1  UNL1        0.0868
      7 C         140.2539  137.5864  164.3454 C.ar    1  UNL1        0.0190
      8 C         138.9799  137.5864  165.1371 C.ar    1  UNL1       -0.0027
      9 C         138.7924  138.5673  166.2563 C.ar    1  UNL1       -0.0217
     10 C         137.5183  138.5673  167.0481 C.3     1  UNL1        0.0310
     11 C         139.8788  139.5483  166.5837 C.ar    1  UNL1        0.0000
     12 C         141.1528  139.5483  165.7920 C.ar    1  UNL1        0.0489
     13 H         145.6881  140.1922  163.6317 H       1  UNL1        0.1452
     14 H         145.0981  138.9045  162.6822 H       1  UNL1        0.1452
     15 N         142.0519  141.5102  167.2386 N.pl3   1  UNL1       -0.3195
     16 H         141.5065  142.3179  167.0990 H       1  UNL1        0.1481
     17 C         142.6953  141.2607  168.5704 C.3     1  UNL1        0.0729
     18 C         142.6278  139.8973  169.1922 C.3     1  UNL1        0.0196
     19 C         140.2659  140.4411  170.1280 C.3     1  UNL1        0.0001
     20 C         141.4123  139.4868  169.9694 C.3     1  UNL1        0.0017
     21 C         143.4063  142.3745  169.2803 C.3     1  UNL1        0.0512
     22 C         142.7728  143.0293  170.4719 C.3     1  UNL1        0.1389
     23 O         143.5320  144.0609  171.2526 O.3     1  UNL1       -0.3819
     24 H         144.2948  143.6440  171.6829 H       1  UNL1        0.2104
@<TRIPOS>BOND
     1    19    20    1
     2    20    18    1
     3    17    18    1
     4    17    21    1
     5    21    22    1
     6    22    23    1
     7    17    15    1
     8    15     1    1
     9     1     2   ar
    10     2     3   ar
    11     3     4    1
    12     3     5   ar
    13     5     6   ar
    14     6     7   ar
    15     7     8   ar
    16     8     9   ar
    17     9    10    1
    18     9    11   ar
    19    11    12   ar
    20    12     1   ar
    21    12     6   ar
    22    23    24    1
    23    15    16    1
    24     4    13    1
    25     4    14    1
@<TRIPOS>MOLECULE
*****
 24 25 0 0 0
SMALL
GASTEIGER

@<TRIPOS>ATOM
      1 C         139.7140  140.5393  167.8060 C.ar    1  UNL1        0.1327
      2 N         138.8694  139.3490  168.1521 N.ar    1  UNL1       -0.1993
      3 C         137.9344  138.7707  167.1316 C.ar    1  UNL1        0.2148
      4 N         137.0897  137.5803  167.4778 N.pl3   1  UNL1       -0.3274
      5 N         137.8440  139.3826  165.7652 N.ar    1  UNL1       -0.2139
      6 C         138.6887  140.5729  165.4190 C.ar    1  UNL1        0.0868
      7 C         138.5983  141.1848  164.0525 C.ar    1  UNL1        0.0190
      8 C         139.4430  142.3751  163.7065 C.ar    1  UNL1       -0.0027
      9 C         140.3780  142.9534  164.7269 C.ar    1  UNL1       -0.0217
     10 C         141.2226  144.1437  164.3808 C.3     1  UNL1        0.0310
     11 C         140.4683  142.3415  166.0934 C.ar    1  UNL1        0.0000
     12 C         139.6237  141.1512  166.4395 C.ar    1  UNL1        0.0489
     13 H         137.1490  137.1787  168.3747 H       1  UNL1        0.1452
     14 H         136.4760  137.2007  166.8080 H       1  UNL1        0.1452
     15 N         140.6490  141.1176  168.8264 N.pl3   1  UNL1       -0.3195
     16 H         140.3072  141.7338  169.5140 H       1  UNL1        0.1481
     17 C         142.1048  140.7571  168.7994 C.3     1  UNL1        0.0729
     18 C         142.5459  139.4643  168.1796 C.3     1  UNL1        0.0196
     19 C         142.2414  138.5987  165.7489 C.3     1  UNL1        0.0001
     20 C         142.9893  139.4322  166.7469 C.3     1  UNL1        0.0017
     21 C         143.1195  141.6894  169.3921 C.3     1  UNL1        0.0512
     22 C         142.7074  142.6759  170.4441 C.3     1  UNL1        0.1389
     23 O         142.0248  142.2000  171.6922 O.3     1  UNL1       -0.3819
     24 H         141.1564  141.8320  171.4656 H       1  UNL1        0.2104
@<TRIPOS>BOND
     1    19    20    1
     2    20    18    1
     3    17    18    1
     4    17    21    1
     5    21    22    1
     6    22    23    1
     7    17    15    1
     8    15     1    1
     9     1     2   ar
    10     2     3   ar
    11     3     4    1
    12     3     5   ar
    13     5     6   ar
    14     6     7   ar
    15     7     8   ar
    16     8     9   ar
    17     9    10    1
    18     9    11   ar
    19    11    12   ar
    20    12     1   ar
    21    12     6   ar
    22    23    24    1
    23    15    16    1
    24     4    13    1
    25     4    14    1
@<TRIPOS>MOLECULE
*****
 24 25 0 0 0
SMALL
GASTEIGER

@<TRIPOS>ATOM
      1 C         137.6754  141.3977  162.5983 C.ar    1  UNL1        0.1327
      2 N         137.6633  141.3036  161.1013 N.ar    1  UNL1       -0.1993
      3 C         138.0556  140.0223  160.4272 C.ar    1  UNL1        0.2148
      4 N         138.0435  139.9282  158.9302 N.pl3   1  UNL1       -0.3274
      5 N         138.4600  138.8352  161.2501 N.ar    1  UNL1       -0.2139
      6 C         138.4721  138.9293  162.7471 C.ar    1  UNL1        0.0868
      7 C         138.8765  137.7422  163.5700 C.ar    1  UNL1        0.0190
      8 C         138.8886  137.8364  165.0670 C.ar    1  UNL1       -0.0027
      9 C         138.4963  139.1177  165.7411 C.ar    1  UNL1       -0.0217
     10 C         138.5084  139.2118  167.2381 C.3     1  UNL1        0.0310
     11 C         138.0919  140.3048  164.9182 C.ar    1  UNL1        0.0000
     12 C         138.0798  140.2106  163.4212 C.ar    1  UNL1        0.0489
     13 H         137.7780  140.7073  158.3901 H       1  UNL1        0.1452
     14 H         138.3010  139.0872  158.4877 H       1  UNL1        0.1452
     15 N         137.2830  142.6790  163.2724 N.pl3   1  UNL1       -0.3195
     16 H         136.3529  142.8170  163.5642 H       1  UNL1        0.1481
     17 C         138.3078  143.7501  163.5019 C.3     1  UNL1        0.0729
     18 C         138.4714  144.3515  164.8662 C.3     1  UNL1        0.0196
     19 C         140.5099  142.8101  165.3339 C.3     1  UNL1        0.0001
     20 C         139.6552  143.9837  165.7109 C.3     1  UNL1        0.0017
     21 C         139.1689  144.2198  162.3670 C.3     1  UNL1        0.0512
     22 C         139.5631  145.6639  162.2724 C.3     1  UNL1        0.1389
     23 O         140.8891  146.1160  162.8085 O.3     1  UNL1       -0.3819
     24 H         140.9025  146.0068  163.7722 H       1  UNL1        0.2104
@<TRIPOS>BOND
     1    19    20    1
     2    20    18    1
     3    17    18    1
     4    17    21    1
     5    21    22    1
     6    22    23    1
     7    17    15    1
     8    15     1    1
     9     1     2   ar
    10     2     3   ar
    11     3     4    1
    12     3     5   ar
    13     5     6   ar
    14     6     7   ar
    15     7     8   ar
    16     8     9   ar
    17     9    10    1
    18     9    11   ar
    19    11    12   ar
    20    12     1   ar
    21    12     6   ar
    22    23    24    1
    23    15    16    1
    24     4    13    1
    25     4    14    1
@<TRIPOS>MOLECULE
*****
 24 25 0 0 0
SMALL
GASTEIGER

@<TRIPOS>ATOM
      1 C         142.0672  142.7937  165.0313 C.ar    1  UNL1        0.1327
      2 N         142.3126  144.0656  164.2751 N.ar    1  UNL1       -0.1993
      3 C         143.5290  144.1996  163.4076 C.ar    1  UNL1        0.2148
      4 N         143.7745  145.4716  162.6513 N.pl3   1  UNL1       -0.3274
      5 N         144.4999  143.0616  163.2963 N.ar    1  UNL1       -0.2139
      6 C         144.2544  141.7896  164.0526 C.ar    1  UNL1        0.0868
      7 C         145.2252  140.6516  163.9413 C.ar    1  UNL1        0.0190
      8 C         144.9797  139.3797  164.6975 C.ar    1  UNL1       -0.0027
      9 C         143.7634  139.2458  165.5650 C.ar    1  UNL1       -0.0217
     10 C         143.5179  137.9738  166.3213 C.3     1  UNL1        0.0310
     11 C         142.7925  140.3838  165.6763 C.ar    1  UNL1        0.0000
     12 C         143.0380  141.6557  164.9201 C.ar    1  UNL1        0.0489
     13 H         143.1372  146.2185  162.7243 H       1  UNL1        0.1452
     14 H         144.5728  145.5595  162.0819 H       1  UNL1        0.1452
     15 N         140.8508  142.6598  165.8988 N.pl3   1  UNL1       -0.3195
     16 H         140.9019  142.8837  166.8561 H       1  UNL1        0.1481
     17 C         139.5567  142.1847  165.3077 C.3     1  UNL1        0.0729
     18 C         139.2546  140.7167  165.2456 C.3     1  UNL1        0.0196
     19 C         138.0718  138.9129  166.6939 C.3     1  UNL1        0.0001
     20 C         139.1742  139.9134  166.5099 C.3     1  UNL1        0.0017
     21 C         138.5645  143.1776  164.7787 C.3     1  UNL1        0.0512
     22 C         138.7463  144.6404  165.0563 C.3     1  UNL1        0.1389
     23 O         139.7960  145.4187  164.3199 O.3     1  UNL1       -0.3819
     24 H         140.6749  145.0951  164.5721 H       1  UNL1        0.2104
@<TRIPOS>BOND
     1    19    20    1
     2    20    18    1
     3    17    18    1
     4    17    21    1
     5    21    22    1
     6    22    23    1
     7    17    15    1
     8    15     1    1
     9     1     2   ar
    10     2     3   ar
    11     3     4    1
    12     3     5   ar
    13     5     6   ar
    14     6     7   ar
    15     7     8   ar
    16     8     9   ar
    17     9    10    1
    18     9    11   ar
    19    11    12   ar
    20    12     1   ar
    21    12     6   ar
    22    23    24    1
    23    15    16    1
    24     4    13    1
    25     4    14    1
@<TRIPOS>MOLECULE
*****
 24 25 0 0 0
SMALL
GASTEIGER

@<TRIPOS>ATOM
      1 C         140.6812  145.1410  162.4724 C.ar    1  UNL1        0.1327
      2 N         140.1294  145.3570  161.0944 N.ar    1  UNL1       -0.1993
      3 C         140.9079  144.9035  159.8952 C.ar    1  UNL1        0.2148
      4 N         140.3560  145.1196  158.5172 N.pl3   1  UNL1       -0.3274
      5 N         142.2382  144.2341  160.0738 N.ar    1  UNL1       -0.2139
      6 C         142.7901  144.0180  161.4518 C.ar    1  UNL1        0.0868
      7 C         144.1205  143.3485  161.6305 C.ar    1  UNL1        0.0190
      8 C         144.6723  143.1325  163.0085 C.ar    1  UNL1       -0.0027
      9 C         143.8937  143.5860  164.2078 C.ar    1  UNL1       -0.0217
     10 C         144.4456  143.3700  165.5858 C.3     1  UNL1        0.0310
     11 C         142.5634  144.2555  164.0291 C.ar    1  UNL1        0.0000
     12 C         142.0116  144.4715  162.6511 C.ar    1  UNL1        0.0489
     13 H         139.4829  145.5590  158.3999 H       1  UNL1        0.1452
     14 H         140.8670  144.8219  157.7300 H       1  UNL1        0.1452
     15 N         139.9027  145.5945  163.6717 N.pl3   1  UNL1       -0.3195
     16 H         140.0068  146.5142  164.0071 H       1  UNL1        0.1481
     17 C         138.9656  144.6467  164.3598 C.3     1  UNL1        0.0729
     18 C         139.2867  144.1408  165.7349 C.3     1  UNL1        0.0196
     19 C         140.8217  142.5333  167.0804 C.3     1  UNL1        0.0001
     20 C         139.9216  142.7928  165.9089 C.3     1  UNL1        0.0017
     21 C         137.7075  144.2049  163.6729 C.3     1  UNL1        0.0512
     22 C         137.7432  143.0570  162.7080 C.3     1  UNL1        0.1389
     23 O         137.6660  143.3151  161.2324 O.3     1  UNL1       -0.3819
     24 H         136.7960  143.6839  161.0137 H       1  UNL1        0.2104
@<TRIPOS>BOND
     1    19    20    1
     2    20    18    1
     3    17    18    1
     4    17    21    1
     5    21    22    1
     6    22    23    1
     7    17    15    1
     8    15     1    1
     9     1     2   ar
    10     2     3   ar
    11     3     4    1
    12     3     5   ar
    13     5     6   ar
    14     6     7   ar
    15     7     8   ar
    16     8     9   ar
    17     9    10    1
    18     9    11   ar
    19    11    12   ar
    20    12     1   ar
    21    12     6   ar
    22    23    24    1
    23    15    16    1
    24     4    13    1
    25     4    14    1
@<TRIPOS>MOLECULE
*****
 24 25 0 0 0
SMALL
GASTEIGER

@<TRIPOS>ATOM
      1 C         139.8648  140.2358  167.4424 C.ar    1  UNL1        0.1327
      2 N         139.4201  139.7045  168.7728 N.ar    1  UNL1       -0.1993
      3 C         140.2180  140.0079  170.0062 C.ar    1  UNL1        0.2148
      4 N         139.7734  139.4765  171.3367 N.pl3   1  UNL1       -0.3274
      5 N         141.4605  140.8425  169.9093 N.ar    1  UNL1       -0.2139
      6 C         141.9052  141.3739  168.5788 C.ar    1  UNL1        0.0868
      7 C         143.1477  142.2086  168.4819 C.ar    1  UNL1        0.0190
      8 C         143.5924  142.7399  167.1515 C.ar    1  UNL1       -0.0027
      9 C         142.7945  142.4365  165.9181 C.ar    1  UNL1       -0.0217
     10 C         143.2392  142.9679  164.5876 C.3     1  UNL1        0.0310
     11 C         141.5520  141.6019  166.0150 C.ar    1  UNL1        0.0000
     12 C         141.1073  141.0706  167.3454 C.ar    1  UNL1        0.0489
     13 H         138.9578  138.9287  171.4003 H       1  UNL1        0.1452
     14 H         140.2970  139.6756  172.1462 H       1  UNL1        0.1452
     15 N         139.0669  139.9325  166.2090 N.pl3   1  UNL1       -0.3195
     16 H         138.3344  140.5314  165.9369 H       1  UNL1        0.1481
     17 C         139.3850  138.7167  165.3901 C.3     1  UNL1        0.0729
     18 C         140.6409  138.6717  164.5710 C.3     1  UNL1        0.0196
     19 C         142.9975  138.3100  165.6032 C.3     1  UNL1        0.0001
     20 C         141.7600  137.7534  164.9639 C.3     1  UNL1        0.0017
     21 C         138.4473  137.5459  165.3902 C.3     1  UNL1        0.0512
     22 C         137.7455  137.1473  166.6545 C.3     1  UNL1        0.1389
     23 O         137.0410  138.1830  167.4797 O.3     1  UNL1       -0.3819
     24 H         137.6915  138.8035  167.8439 H       1  UNL1        0.2104
@<TRIPOS>BOND
     1    19    20    1
     2    20    18    1
     3    17    18    1
     4    17    21    1
     5    21    22    1
     6    22    23    1
     7    17    15    1
     8    15     1    1
     9     1     2   ar
    10     2     3   ar
    11     3     4    1
    12     3     5   ar
    13     5     6   ar
    14     6     7   ar
    15     7     8   ar
    16     8     9   ar
    17     9    10    1
    18     9    11   ar
    19    11    12   ar
    20    12     1   ar
    21    12     6   ar
    22    23    24    1
    23    15    16    1
    24     4    13    1
    25     4    14    1
@<TRIPOS>MOLECULE
*****
 24 25 0 0 0
SMALL
GASTEIGER

@<TRIPOS>ATOM
      1 C         140.5947  141.4717  165.4421 C.ar    1  UNL1        0.1327
      2 N         140.1862  140.2857  164.6195 N.ar    1  UNL1       -0.1993
      3 C         139.4783  139.1323  165.2663 C.ar    1  UNL1        0.2148
      4 N         139.0698  137.9464  164.4436 N.pl3   1  UNL1       -0.3274
      5 N         139.1788  139.1648  166.7357 N.ar    1  UNL1       -0.2139
      6 C         139.5873  140.3507  167.5584 C.ar    1  UNL1        0.0868
      7 C         139.2878  140.3832  169.0278 C.ar    1  UNL1        0.0190
      8 C         139.6963  141.5691  169.8504 C.ar    1  UNL1       -0.0027
      9 C         140.4042  142.7226  169.2036 C.ar    1  UNL1       -0.0217
     10 C         140.8127  143.9085  170.0262 C.3     1  UNL1        0.0310
     11 C         140.7037  142.6901  167.7341 C.ar    1  UNL1        0.0000
     12 C         140.2952  141.5042  166.9116 C.ar    1  UNL1        0.0489
     13 H         139.2663  137.9250  163.4792 H       1  UNL1        0.1452
     14 H         138.6051  137.1893  164.8681 H       1  UNL1        0.1452
     15 N         141.3027  142.6251  164.7952 N.pl3   1  UNL1       -0.3195
     16 H         142.2846  142.6847  164.8347 H       1  UNL1        0.1481
     17 C         140.5146  143.6877  164.0884 C.3     1  UNL1        0.0729
     18 C         139.0570  143.4765  163.8042 C.3     1  UNL1        0.0196
     19 C         138.4360  144.9975  165.8170 C.3     1  UNL1        0.0001
     20 C         138.0222  144.1922  164.6210 C.3     1  UNL1        0.0017
     21 C         141.1842  144.9618  163.6656 C.3     1  UNL1        0.0512
     22 C         142.6688  145.1144  163.8157 C.3     1  UNL1        0.1389
     23 O         143.5143  145.4366  162.6194 O.3     1  UNL1       -0.3819
     24 H         143.4897  144.6934  161.9965 H       1  UNL1        0.2104
@<TRIPOS>BOND
     1    19    20    1
     2    20    18    1
     3    17    18    1
     4    17    21    1
     5    21    22    1
     6    22    23    1
     7    17    15    1
     8    15     1    1
     9     1     2   ar
    10     2     3   ar
    11     3     4    1
    12     3     5   ar
    13     5     6   ar
    14     6     7   ar
    15     7     8   ar
    16     8     9   ar
    17     9    10    1
    18     9    11   ar
    19    11    12   ar
    20    12     1   ar
    21    12     6   ar
    22    23    24    1
    23    15    16    1
    24     4    13    1
    25     4    14    1
@<TRIPOS>MOLECULE
*****
 24 25 0 0 0
SMALL
GASTEIGER

@<TRIPOS>ATOM
      1 C         139.4785  143.2035  164.5713 C.ar    1  UNL1        0.1327
      2 N         138.6365  142.6827  163.4445 N.ar    1  UNL1       -0.1993
      3 C         138.0668  141.2968  163.5124 C.ar    1  UNL1        0.2148
      4 N         137.2248  140.7760  162.3855 N.pl3   1  UNL1       -0.3274
      5 N         138.3392  140.4316  164.7071 N.ar    1  UNL1       -0.2139
      6 C         139.1812  140.9524  165.8340 C.ar    1  UNL1        0.0868
      7 C         139.4536  140.0873  167.0286 C.ar    1  UNL1        0.0190
      8 C         140.2956  140.6081  168.1554 C.ar    1  UNL1       -0.0027
      9 C         140.8652  141.9940  168.0876 C.ar    1  UNL1       -0.0217
     10 C         141.7073  142.5148  169.2145 C.3     1  UNL1        0.0310
     11 C         140.5929  142.8592  166.8929 C.ar    1  UNL1        0.0000
     12 C         139.7509  142.3384  165.7661 C.ar    1  UNL1        0.0489
     13 H         137.0460  141.3438  161.6014 H       1  UNL1        0.1452
     14 H         136.8509  139.8663  162.4300 H       1  UNL1        0.1452
     15 N         140.0481  144.5895  164.5035 N.pl3   1  UNL1       -0.3195
     16 H         139.6642  145.3072  165.0574 H       1  UNL1        0.1481
     17 C         141.2027  144.8820  163.5917 C.3     1  UNL1        0.0729
     18 C         142.6045  144.8572  164.1249 C.3     1  UNL1        0.0196
     19 C         144.4613  143.4947  165.3274 C.3     1  UNL1        0.0001
     20 C         143.2752  143.5462  164.4106 C.3     1  UNL1        0.0017
     21 C         140.9555  145.1994  162.1466 C.3     1  UNL1        0.0512
     22 C         139.7292  145.9647  161.7459 C.3     1  UNL1        0.1389
     23 O         138.3693  145.4441  162.1061 O.3     1  UNL1       -0.3819
     24 H         138.2048  144.6141  161.6319 H       1  UNL1        0.2104
@<TRIPOS>BOND
     1    19    20    1
     2    20    18    1
     3    17    18    1
     4    17    21    1
     5    21    22    1
     6    22    23    1
     7    17    15    1
     8    15     1    1
     9     1     2   ar
    10     2     3   ar
    11     3     4    1
    12     3     5   ar
    13     5     6   ar
    14     6     7   ar
    15     7     8   ar
    16     8     9   ar
    17     9    10    1
    18     9    11   ar
    19    11    12   ar
    20    12     1   ar
    21    12     6   ar
    22    23    24    1
    23    15    16    1
    24     4    13    1
    25     4    14    1
@<TRIPOS>MOLECULE
*****
 24 25 0 0 0
SMALL
GASTEIGER

@<TRIPOS>ATOM
      1 C         142.4709  141.7662  167.1102 C.ar    1  UNL1        0.1327
      2 N         143.4665  142.4635  167.9891 N.ar    1  UNL1       -0.1993
      3 C         143.2604  142.4989  169.4745 C.ar    1  UNL1        0.2148
      4 N         144.2561  143.1962  170.3534 N.pl3   1  UNL1       -0.3274
      5 N         142.0588  141.8369  170.0809 N.ar    1  UNL1       -0.2139
      6 C         141.0631  141.1396  169.2020 C.ar    1  UNL1        0.0868
      7 C         139.8615  140.4777  169.8085 C.ar    1  UNL1        0.0190
      8 C         138.8659  139.7804  168.9296 C.ar    1  UNL1       -0.0027
      9 C         139.0719  139.7450  167.4443 C.ar    1  UNL1       -0.0217
     10 C         138.0762  139.0477  166.5654 C.3     1  UNL1        0.0310
     11 C         140.2735  140.4069  166.8378 C.ar    1  UNL1        0.0000
     12 C         141.2691  141.1042  167.7167 C.ar    1  UNL1        0.0489
     13 H         145.0448  143.6307  169.9553 H       1  UNL1        0.1452
     14 H         144.1209  143.2194  171.3283 H       1  UNL1        0.1452
     15 N         142.6769  141.7309  165.6249 N.pl3   1  UNL1       -0.3195
     16 H         142.8509  140.8740  165.1723 H       1  UNL1        0.1481
     17 C         142.6178  143.0010  164.8290 C.3     1  UNL1        0.0729
     18 C         141.3065  143.4845  164.2844 C.3     1  UNL1        0.0196
     19 C         138.7948  143.1558  164.8618 C.3     1  UNL1        0.0001
     20 C         140.1463  143.7061  165.2091 C.3     1  UNL1        0.0017
     21 C         143.8702  143.7875  164.5778 C.3     1  UNL1        0.0512
     22 C         144.2361  144.1885  163.1795 C.3     1  UNL1        0.1389
     23 O         143.8503  145.5427  162.6624 O.3     1  UNL1       -0.3819
     24 H         142.8841  145.6020  162.6007 H       1  UNL1        0.2104
@<TRIPOS>BOND
     1    19    20    1
     2    20    18    1
     3    17    18    1
     4    17    21    1
     5    21    22    1
     6    22    23    1
     7    17    15    1
     8    15     1    1
     9     1     2   ar
    10     2     3   ar
    11     3     4    1
    12     3     5   ar
    13     5     6   ar
    14     6     7   ar
    15     7     8   ar
    16     8     9   ar
    17     9    10    1
    18     9    11   ar
    19    11    12   ar
    20    12     1   ar
    21    12     6   ar
    22    23    24    1
    23    15    16    1
    24     4    13    1
    25     4    14    1
