@<TRIPOS>MOLECULE
*****
 23 25 0 0 0
SMALL
GASTEIGER

@<TRIPOS>ATOM
      1 C         143.0590  138.8277  166.3996 C.3     1  UNL1        0.0523
      2 C         141.7327  138.7053  165.7097 C.ar    1  UNL1        0.0657
      3 C         141.4332  137.8388  164.5225 C.ar    1  UNL1        0.0739
      4 C         139.9885  138.0257  164.1648 C.ar    1  UNL1        0.2434
      5 N         139.3952  139.0078  165.1310 N.ar    1  UNL1       -0.1276
      6 N         140.4731  139.4278  166.0858 N.ar    1  UNL1       -0.2300
      7 C         140.3187  140.3997  167.2179 C.ar    1  UNL1        0.0931
      8 C         139.7077  139.9520  168.5126 C.ar    1  UNL1        0.0209
      9 C         139.5533  140.9238  169.6446 C.ar    1  UNL1        0.0130
     10 C         140.0098  142.3434  169.4820 C.ar    1  UNL1        0.0586
     11 CL        139.8553  143.3152  170.6141 Cl      1  UNL1       -0.0822
     12 C         140.6207  142.7911  168.1873 C.ar    1  UNL1        0.0243
     13 C         140.7752  141.8193  167.0552 C.ar    1  UNL1        0.0761
     14 CL        141.3861  142.2670  165.7604 Cl      1  UNL1       -0.0806
     15 O         139.2643  137.3494  163.0388 O.3     1  UNL1       -0.4577
     16 C         138.9529  138.1094  161.7835 C.3     1  UNL1        0.2244
     17 C         137.7224  138.9641  161.7101 C.3     1  UNL1        0.1202
     18 N         137.8477  140.4587  161.6878 N.3     1  UNL1       -0.2653
     19 C         137.4793  141.2604  162.9008 C.3     1  UNL1        0.1047
     20 C         137.6045  142.7550  162.8785 C.3     1  UNL1        0.1595
     21 O         138.0983  143.4479  161.6431 O.3     1  UNL1       -0.3508
     22 C         138.4667  142.6462  160.4301 C.3     1  UNL1        0.1595
     23 C         138.3414  141.1516  160.4524 C.3     1  UNL1        0.1047
@<TRIPOS>BOND
     1     1     2    1
     2     2     3   ar
     3     3     4   ar
     4     4    15    1
     5    15    16    1
     6    16    17    1
     7    17    18    1
     8    18    19    1
     9    19    20    1
    10    20    21    1
    11    21    22    1
    12    22    23    1
    13     4     5   ar
    14     5     6   ar
    15     6     7    1
    16     7     8   ar
    17     8     9   ar
    18     9    10   ar
    19    10    11    1
    20    10    12   ar
    21    12    13   ar
    22    13    14    1
    23     6     2   ar
    24    13     7   ar
    25    23    18    1
@<TRIPOS>MOLECULE
*****
 23 25 0 0 0
SMALL
GASTEIGER

@<TRIPOS>ATOM
      1 C         138.8206  144.8203  165.1356 C.3     1  UNL1        0.0523
      2 C         140.0285  144.2906  164.4211 C.ar    1  UNL1        0.0657
      3 C         141.0168  145.1033  163.6384 C.ar    1  UNL1        0.0739
      4 C         142.0593  144.1702  163.0975 C.ar    1  UNL1        0.2434
      5 N         141.7152  142.7808  163.5459 N.ar    1  UNL1       -0.1276
      6 N         140.4602  142.8551  164.3640 N.ar    1  UNL1       -0.2300
      7 C         139.7597  141.6974  165.0113 C.ar    1  UNL1        0.0931
      8 C         138.7948  140.8664  164.2187 C.ar    1  UNL1        0.0209
      9 C         138.0944  139.7086  164.8659 C.ar    1  UNL1        0.0130
     10 C         138.3588  139.3819  166.3059 C.ar    1  UNL1        0.0586
     11 CL        137.6584  138.2242  166.9532 Cl      1  UNL1       -0.0822
     12 C         139.3237  140.2130  167.0985 C.ar    1  UNL1        0.0243
     13 C         140.0242  141.3707  166.4512 C.ar    1  UNL1        0.0761
     14 CL        140.9892  142.2018  167.2439 Cl      1  UNL1       -0.0806
     15 O         143.2386  144.5584  162.2559 O.3     1  UNL1       -0.4577
     16 C         144.4897  143.7314  162.2908 C.3     1  UNL1        0.2244
     17 C         144.6993  142.6455  161.2775 C.3     1  UNL1        0.1202
     18 N         144.4258  141.2164  161.6422 N.3     1  UNL1       -0.2653
     19 C         143.9070  140.2640  160.6060 C.3     1  UNL1        0.1047
     20 C         143.6335  138.8350  160.9707 C.3     1  UNL1        0.1595
     21 O         143.8789  138.3583  162.3717 O.3     1  UNL1       -0.3508
     22 C         144.3978  139.3107  163.4079 C.3     1  UNL1        0.1595
     23 C         144.6712  140.7397  163.0431 C.3     1  UNL1        0.1047
@<TRIPOS>BOND
     1     1     2    1
     2     2     3   ar
     3     3     4   ar
     4     4    15    1
     5    15    16    1
     6    16    17    1
     7    17    18    1
     8    18    19    1
     9    19    20    1
    10    20    21    1
    11    21    22    1
    12    22    23    1
    13     4     5   ar
    14     5     6   ar
    15     6     7    1
    16     7     8   ar
    17     8     9   ar
    18     9    10   ar
    19    10    11    1
    20    10    12   ar
    21    12    13   ar
    22    13    14    1
    23     6     2   ar
    24    13     7   ar
    25    23    18    1
@<TRIPOS>MOLECULE
*****
 23 25 0 0 0
SMALL
GASTEIGER

@<TRIPOS>ATOM
      1 C         137.9533  138.6993  166.5541 C.3     1  UNL1        0.0523
      2 C         139.1232  138.5870  165.6221 C.ar    1  UNL1        0.0657
      3 C         139.2043  137.7053  164.4112 C.ar    1  UNL1        0.0739
      4 C         140.5486  137.9100  163.7780 C.ar    1  UNL1        0.2434
      5 N         141.2983  138.9182  164.5976 N.ar    1  UNL1       -0.1276
      6 N         140.4174  139.3366  165.7372 N.ar    1  UNL1       -0.2300
      7 C         140.7689  140.3301  166.8046 C.ar    1  UNL1        0.0931
      8 C         141.6517  139.9229  167.9469 C.ar    1  UNL1        0.0209
      9 C         142.0032  140.9164  169.0142 C.ar    1  UNL1        0.0130
     10 C         141.4719  142.3171  168.9394 C.ar    1  UNL1        0.0586
     11 CL        141.8234  143.3106  170.0068 Cl      1  UNL1       -0.0822
     12 C         140.5890  142.7244  167.7972 C.ar    1  UNL1        0.0243
     13 C         140.2375  141.7309  166.7298 C.ar    1  UNL1        0.0761
     14 CL        139.3546  142.1381  165.5875 Cl      1  UNL1       -0.0806
     15 O         141.0544  137.2265  162.5423 O.3     1  UNL1       -0.4577
     16 C         141.9915  137.9456  161.6178 C.3     1  UNL1        0.2244
     17 C         143.4570  138.0042  161.9321 C.3     1  UNL1        0.1202
     18 N         144.0939  139.3121  162.2980 N.3     1  UNL1       -0.2653
     19 C         144.0772  140.4529  161.3242 C.3     1  UNL1        0.1047
     20 C         144.7141  141.7607  161.6902 C.3     1  UNL1        0.1595
     21 O         145.3676  141.9278  163.0299 O.3     1  UNL1       -0.3508
     22 C         145.3843  140.7870  164.0037 C.3     1  UNL1        0.1595
     23 C         144.7475  139.4792  163.6377 C.3     1  UNL1        0.1047
@<TRIPOS>BOND
     1     1     2    1
     2     2     3   ar
     3     3     4   ar
     4     4    15    1
     5    15    16    1
     6    16    17    1
     7    17    18    1
     8    18    19    1
     9    19    20    1
    10    20    21    1
    11    21    22    1
    12    22    23    1
    13     4     5   ar
    14     5     6   ar
    15     6     7    1
    16     7     8   ar
    17     8     9   ar
    18     9    10   ar
    19    10    11    1
    20    10    12   ar
    21    12    13   ar
    22    13    14    1
    23     6     2   ar
    24    13     7   ar
    25    23    18    1
@<TRIPOS>MOLECULE
*****
 23 25 0 0 0
SMALL
GASTEIGER

@<TRIPOS>ATOM
      1 C         138.4220  144.9004  165.7691 C.3     1  UNL1        0.0523
      2 C         138.5283  144.0021  164.5725 C.ar    1  UNL1        0.0657
      3 C         137.8195  144.1891  163.2638 C.ar    1  UNL1        0.0739
      4 C         138.2152  143.0617  162.3571 C.ar    1  UNL1        0.2434
      5 N         139.1686  142.1778  163.1054 N.ar    1  UNL1       -0.1276
      6 N         139.3621  142.7590  164.4746 N.ar    1  UNL1       -0.2300
      7 C         140.2359  142.1960  165.5560 C.ar    1  UNL1        0.0931
      8 C         139.6778  141.1999  166.5287 C.ar    1  UNL1        0.0209
      9 C         140.5516  140.6369  167.6100 C.ar    1  UNL1        0.0130
     10 C         141.9836  141.0700  167.7187 C.ar    1  UNL1        0.0586
     11 CL        142.8575  140.5070  168.8001 Cl      1  UNL1       -0.0822
     12 C         142.5418  142.0662  166.7460 C.ar    1  UNL1        0.0243
     13 C         141.6679  142.6291  165.6646 C.ar    1  UNL1        0.0761
     14 CL        142.2261  143.6253  164.6918 Cl      1  UNL1       -0.0806
     15 O         137.7408  142.8544  160.9493 O.3     1  UNL1       -0.4577
     16 C         138.4221  141.8494  160.0685 C.3     1  UNL1        0.2244
     17 C         137.9760  140.4173  160.0802 C.3     1  UNL1        0.1202
     18 N         138.7209  139.4063  160.9005 N.3     1  UNL1       -0.2653
     19 C         138.0339  138.7098  162.0375 C.3     1  UNL1        0.1047
     20 C         138.7788  137.6988  162.8578 C.3     1  UNL1        0.1595
     21 O         140.2109  137.3843  162.5411 O.3     1  UNL1       -0.3508
     22 C         140.8980  138.0808  161.4041 C.3     1  UNL1        0.1595
     23 C         140.1530  139.0918  160.5838 C.3     1  UNL1        0.1047
@<TRIPOS>BOND
     1     1     2    1
     2     2     3   ar
     3     3     4   ar
     4     4    15    1
     5    15    16    1
     6    16    17    1
     7    17    18    1
     8    18    19    1
     9    19    20    1
    10    20    21    1
    11    21    22    1
    12    22    23    1
    13     4     5   ar
    14     5     6   ar
    15     6     7    1
    16     7     8   ar
    17     8     9   ar
    18     9    10   ar
    19    10    11    1
    20    10    12   ar
    21    12    13   ar
    22    13    14    1
    23     6     2   ar
    24    13     7   ar
    25    23    18    1
@<TRIPOS>MOLECULE
*****
 23 25 0 0 0
SMALL
GASTEIGER

@<TRIPOS>ATOM
      1 C         139.2539  137.5653  164.8742 C.3     1  UNL1        0.0523
      2 C         138.8924  139.0115  164.7074 C.ar    1  UNL1        0.0657
      3 C         138.0370  139.5864  163.6175 C.ar    1  UNL1        0.0739
      4 C         137.9388  141.0669  163.8376 C.ar    1  UNL1        0.2434
      5 N         138.7336  141.4070  165.0635 N.ar    1  UNL1       -0.1276
      6 N         139.3230  140.1367  165.6010 N.ar    1  UNL1       -0.2300
      7 C         140.1905  140.0133  166.8184 C.ar    1  UNL1        0.0931
      8 C         139.5864  140.1386  168.1857 C.ar    1  UNL1        0.0209
      9 C         140.4539  140.0151  169.4031 C.ar    1  UNL1        0.0130
     10 C         141.9256  139.7664  169.2533 C.ar    1  UNL1        0.0586
     11 CL        142.7931  139.6430  170.4707 Cl      1  UNL1       -0.0822
     12 C         142.5297  139.6411  167.8860 C.ar    1  UNL1        0.0243
     13 C         141.6622  139.7646  166.6686 C.ar    1  UNL1        0.0761
     14 CL        142.2662  139.6393  165.3013 Cl      1  UNL1       -0.0806
     15 O         137.1793  142.0370  162.9821 O.3     1  UNL1       -0.4577
     16 C         137.8334  143.3082  162.5277 C.3     1  UNL1        0.2244
     17 C         139.1512  143.2596  161.8131 C.3     1  UNL1        0.1202
     18 N         140.4152  143.5975  162.5468 N.3     1  UNL1       -0.2653
     19 C         140.6832  145.0122  162.9671 C.3     1  UNL1        0.1047
     20 C         141.9471  145.3499  163.7008 C.3     1  UNL1        0.1595
     21 O         142.9431  144.2730  164.0141 O.3     1  UNL1       -0.3508
     22 C         142.6752  142.8583  163.5938 C.3     1  UNL1        0.1595
     23 C         141.4112  142.5205  162.8601 C.3     1  UNL1        0.1047
@<TRIPOS>BOND
     1     1     2    1
     2     2     3   ar
     3     3     4   ar
     4     4    15    1
     5    15    16    1
     6    16    17    1
     7    17    18    1
     8    18    19    1
     9    19    20    1
    10    20    21    1
    11    21    22    1
    12    22    23    1
    13     4     5   ar
    14     5     6   ar
    15     6     7    1
    16     7     8   ar
    17     8     9   ar
    18     9    10   ar
    19    10    11    1
    20    10    12   ar
    21    12    13   ar
    22    13    14    1
    23     6     2   ar
    24    13     7   ar
    25    23    18    1
@<TRIPOS>MOLECULE
*****
 23 25 0 0 0
SMALL
GASTEIGER

@<TRIPOS>ATOM
      1 C         143.6523  138.4173  166.0144 C.3     1  UNL1        0.0523
      2 C         143.2275  139.4294  164.9921 C.ar    1  UNL1        0.0657
      3 C         144.1386  140.2033  164.0860 C.ar    1  UNL1        0.0739
      4 C         143.2912  141.0976  163.2303 C.ar    1  UNL1        0.2434
      5 N         141.8563  140.8764  163.6077 N.ar    1  UNL1       -0.1276
      6 N         141.8169  139.8455  164.6965 N.ar    1  UNL1       -0.2300
      7 C         140.5836  139.3224  165.3712 C.ar    1  UNL1        0.0931
      8 C         140.0454  140.0123  166.5895 C.ar    1  UNL1        0.0209
      9 C         138.8121  139.4893  167.2643 C.ar    1  UNL1        0.0130
     10 C         138.1170  138.2762  166.7207 C.ar    1  UNL1        0.0586
     11 CL        136.8837  137.7532  167.3955 Cl      1  UNL1       -0.0822
     12 C         138.6552  137.5863  165.5024 C.ar    1  UNL1        0.0243
     13 C         139.8885  138.1094  164.8277 C.ar    1  UNL1        0.0761
     14 CL        140.4268  137.4194  163.6093 Cl      1  UNL1       -0.0806
     15 O         143.7909  142.0464  162.1816 O.3     1  UNL1       -0.4577
     16 C         144.5630  143.2684  162.5823 C.3     1  UNL1        0.2244
     17 C         143.8378  144.5397  162.9105 C.3     1  UNL1        0.1202
     18 N         142.3425  144.5987  162.8056 N.3     1  UNL1       -0.2653
     19 C         141.5032  144.6070  164.0487 C.3     1  UNL1        0.1047
     20 C         140.0081  144.6660  163.9438 C.3     1  UNL1        0.1595
     21 O         139.3523  144.7167  162.5957 O.3     1  UNL1       -0.3508
     22 C         140.1916  144.7084  161.3525 C.3     1  UNL1        0.1595
     23 C         141.6868  144.6494  161.4575 C.3     1  UNL1        0.1047
@<TRIPOS>BOND
     1     1     2    1
     2     2     3   ar
     3     3     4   ar
     4     4    15    1
     5    15    16    1
     6    16    17    1
     7    17    18    1
     8    18    19    1
     9    19    20    1
    10    20    21    1
    11    21    22    1
    12    22    23    1
    13     4     5   ar
    14     5     6   ar
    15     6     7    1
    16     7     8   ar
    17     8     9   ar
    18     9    10   ar
    19    10    11    1
    20    10    12   ar
    21    12    13   ar
    22    13    14    1
    23     6     2   ar
    24    13     7   ar
    25    23    18    1
@<TRIPOS>MOLECULE
*****
 23 25 0 0 0
SMALL
GASTEIGER

@<TRIPOS>ATOM
      1 C         138.4441  144.4557  165.1102 C.3     1  UNL1        0.0523
      2 C         139.8898  144.2046  164.7989 C.ar    1  UNL1        0.0657
      3 C         140.6696  144.8202  163.6751 C.ar    1  UNL1        0.0739
      4 C         142.0713  144.2899  163.7385 C.ar    1  UNL1        0.2434
      5 N         142.1579  143.3467  164.9016 N.ar    1  UNL1       -0.1276
      6 N         140.8097  143.2939  165.5570 N.ar    1  UNL1       -0.2300
      7 C         140.4453  142.4744  166.7593 C.ar    1  UNL1        0.0931
      8 C         140.6150  143.0458  168.1358 C.ar    1  UNL1        0.0209
      9 C         140.2507  142.2263  169.3382 C.ar    1  UNL1        0.0130
     10 C         139.7165  140.8354  169.1640 C.ar    1  UNL1        0.0586
     11 CL        139.3521  140.0159  170.3663 Cl      1  UNL1       -0.0822
     12 C         139.5468  140.2641  167.7875 C.ar    1  UNL1        0.0243
     13 C         139.9112  141.0836  166.5852 C.ar    1  UNL1        0.0761
     14 CL        139.7415  140.5123  165.2086 Cl      1  UNL1       -0.0806
     15 O         143.1899  144.6413  162.8030 O.3     1  UNL1       -0.4577
     16 C         143.6876  143.6282  161.8150 C.3     1  UNL1        0.2244
     17 C         144.7403  142.6396  162.2202 C.3     1  UNL1        0.1202
     18 N         144.3445  141.3447  162.8658 N.3     1  UNL1       -0.2653
     19 C         145.2840  140.6619  163.8149 C.3     1  UNL1        0.1047
     20 C         144.8882  139.3671  164.4605 C.3     1  UNL1        0.1595
     21 O         143.5527  138.7552  164.1570 O.3     1  UNL1       -0.3508
     22 C         142.6131  139.4381  163.2079 C.3     1  UNL1        0.1595
     23 C         143.0090  140.7328  162.5623 C.3     1  UNL1        0.1047
@<TRIPOS>BOND
     1     1     2    1
     2     2     3   ar
     3     3     4   ar
     4     4    15    1
     5    15    16    1
     6    16    17    1
     7    17    18    1
     8    18    19    1
     9    19    20    1
    10    20    21    1
    11    21    22    1
    12    22    23    1
    13     4     5   ar
    14     5     6   ar
    15     6     7    1
    16     7     8   ar
    17     8     9   ar
    18     9    10   ar
    19    10    11    1
    20    10    12   ar
    21    12    13   ar
    22    13    14    1
    23     6     2   ar
    24    13     7   ar
    25    23    18    1
@<TRIPOS>MOLECULE
*****
 23 25 0 0 0
SMALL
GASTEIGER

@<TRIPOS>ATOM
      1 C         140.9148  137.1786  164.5252 C.3     1  UNL1        0.0523
      2 C         139.8447  138.0332  163.9131 C.ar    1  UNL1        0.0657
      3 C         139.2391  137.8486  162.5533 C.ar    1  UNL1        0.0739
      4 C         138.2125  138.9238  162.3532 C.ar    1  UNL1        0.2434
      5 N         138.1838  139.7730  163.5893 N.ar    1  UNL1       -0.1276
      6 N         139.1925  139.2227  164.5534 N.ar    1  UNL1       -0.2300
      7 C         139.4958  139.7662  165.9182 C.ar    1  UNL1        0.0931
      8 C         140.5738  140.7943  166.0934 C.ar    1  UNL1        0.0209
      9 C         140.8771  141.3379  167.4582 C.ar    1  UNL1        0.0130
     10 C         140.1024  140.8533  168.6477 C.ar    1  UNL1        0.0586
     11 CL        140.4057  141.3968  170.0124 Cl      1  UNL1       -0.0822
     12 C         139.0243  139.8251  168.4724 C.ar    1  UNL1        0.0243
     13 C         138.7210  139.2816  167.1077 C.ar    1  UNL1        0.0761
     14 CL        137.6430  138.2534  166.9324 Cl      1  UNL1       -0.0806
     15 O         137.3638  139.1161  161.1315 O.3     1  UNL1       -0.4577
     16 C         137.7362  140.1549  160.1154 C.3     1  UNL1        0.2244
     17 C         139.0054  140.9383  160.2743 C.3     1  UNL1        0.1202
     18 N         138.9700  142.3078  160.8852 N.3     1  UNL1       -0.2653
     19 C         139.9366  143.3590  160.4264 C.3     1  UNL1        0.1047
     20 C         139.9012  144.7284  161.0373 C.3     1  UNL1        0.1595
     21 O         138.8990  145.0467  162.1071 O.3     1  UNL1       -0.3508
     22 C         137.9324  143.9955  162.5660 C.3     1  UNL1        0.1595
     23 C         137.9679  142.6261  161.9550 C.3     1  UNL1        0.1047
@<TRIPOS>BOND
     1     1     2    1
     2     2     3   ar
     3     3     4   ar
     4     4    15    1
     5    15    16    1
     6    16    17    1
     7    17    18    1
     8    18    19    1
     9    19    20    1
    10    20    21    1
    11    21    22    1
    12    22    23    1
    13     4     5   ar
    14     5     6   ar
    15     6     7    1
    16     7     8   ar
    17     8     9   ar
    18     9    10   ar
    19    10    11    1
    20    10    12   ar
    21    12    13   ar
    22    13    14    1
    23     6     2   ar
    24    13     7   ar
    25    23    18    1
@<TRIPOS>MOLECULE
*****
 23 25 0 0 0
SMALL
GASTEIGER

@<TRIPOS>ATOM
      1 C         143.7472  138.3918  165.9586 C.3     1  UNL1        0.0523
      2 C         143.3626  139.6065  165.1669 C.ar    1  UNL1        0.0657
      3 C         144.3009  140.4993  164.4102 C.ar    1  UNL1        0.0739
      4 C         143.4904  141.5862  163.7686 C.ar    1  UNL1        0.2434
      5 N         142.0511  141.3652  164.1287 N.ar    1  UNL1       -0.1276
      6 N         141.9721  140.1417  164.9929 N.ar    1  UNL1       -0.2300
      7 C         140.7221  139.5562  165.5800 C.ar    1  UNL1        0.0931
      8 C         140.0158  138.4361  164.8754 C.ar    1  UNL1        0.0209
      9 C         138.7659  137.8505  165.4625 C.ar    1  UNL1        0.0130
     10 C         138.2222  138.3851  166.7542 C.ar    1  UNL1        0.0586
     11 CL        136.9722  137.7996  167.3414 Cl      1  UNL1       -0.0822
     12 C         138.9284  139.5052  167.4589 C.ar    1  UNL1        0.0243
     13 C         140.1784  140.0907  166.8718 C.ar    1  UNL1        0.0761
     14 CL        140.8848  141.2109  167.5765 Cl      1  UNL1       -0.0806
     15 O         144.0252  142.6987  162.9165 O.3     1  UNL1       -0.4577
     16 C         143.1203  143.4059  161.9516 C.3     1  UNL1        0.2244
     17 C         142.1337  144.4184  162.4529 C.3     1  UNL1        0.1202
     18 N         140.6619  144.1544  162.3338 N.3     1  UNL1       -0.2653
     19 C         139.6828  145.0193  163.0708 C.3     1  UNL1        0.1047
     20 C         138.2110  144.7553  162.9516 C.3     1  UNL1        0.1595
     21 O         137.7184  143.6264  162.0954 O.3     1  UNL1       -0.3508
     22 C         138.6976  142.7616  161.3584 C.3     1  UNL1        0.1595
     23 C         140.1693  143.0256  161.4776 C.3     1  UNL1        0.1047
@<TRIPOS>BOND
     1     1     2    1
     2     2     3   ar
     3     3     4   ar
     4     4    15    1
     5    15    16    1
     6    16    17    1
     7    17    18    1
     8    18    19    1
     9    19    20    1
    10    20    21    1
    11    21    22    1
    12    22    23    1
    13     4     5   ar
    14     5     6   ar
    15     6     7    1
    16     7     8   ar
    17     8     9   ar
    18     9    10   ar
    19    10    11    1
    20    10    12   ar
    21    12    13   ar
    22    13    14    1
    23     6     2   ar
    24    13     7   ar
    25    23    18    1
