@<TRIPOS>MOLECULE
*****
 33 35 0 0 0
SMALL
GASTEIGER

@<TRIPOS>ATOM
      1 C         140.9238  140.0170  166.9461 C.ar    1  UNL1        0.1432
      2 C         140.1803  140.2951  168.2188 C.ar    1  UNL1        0.0384
      3 C         140.7670  141.2203  169.2433 C.ar    1  UNL1        0.0215
      4 C         142.0974  141.8673  168.9952 C.ar    1  UNL1        0.1061
      5 C         142.8409  141.5891  167.7226 C.ar    1  UNL1        0.0259
      6 C         142.2541  140.6640  166.6980 C.ar    1  UNL1        0.0887
      7 C         142.9977  140.3858  165.4253 C.2     1  UNL1        0.2521
      8 O         144.0374  139.3053  165.3849 O.2     1  UNL1       -0.2698
      9 N         142.7017  141.1882  164.1930 N.am    1  UNL1       -0.2725
     10 C         141.6620  142.2687  164.2334 C.3     1  UNL1        0.1151
     11 C         141.3659  143.0711  163.0012 C.3     1  UNL1        0.1123
     12 N         142.1095  142.7929  161.7284 N.pl3   1  UNL1       -0.3041
     13 C         143.1492  141.7125  161.6881 C.3     1  UNL1        0.1123
     14 C         143.4452  140.9101  162.9203 C.3     1  UNL1        0.1151
     15 C         141.8135  143.5953  160.4961 C.ar    1  UNL1        0.0480
     16 C         142.6365  143.3989  159.2575 C.ar    1  UNL1        0.0152
     17 C         142.3404  144.2012  158.0253 C.ar    1  UNL1        0.0115
     18 C         141.2213  145.2001  158.0316 C.ar    1  UNL1        0.0685
     19 C         140.3983  145.3965  159.2701 C.ar    1  UNL1        0.0115
     20 C         140.6944  144.5941  160.5024 C.ar    1  UNL1        0.0152
     21 C         140.9252  146.0025  156.7993 C.1     1  UNL1        0.1004
     22 N         140.6292  146.8048  155.5670 N.1     1  UNL1       -0.1908
     23 S         142.6841  142.7925  170.0198 S.O2    1  UNL1        0.0105
     24 C         143.2709  143.7177  171.0444 C.3     1  UNL1        0.1816
     25 O         144.0338  142.6421  169.3827 O.2     1  UNL1       -0.1686
     26 O         141.3345  142.9429  170.6569 O.2     1  UNL1       -0.1686
     27 O         140.3370  139.0918  165.9215 O.3     1  UNL1       -0.4702
     28 C         138.1376  140.0977  164.9725 C.3     1  UNL1        0.0566
     29 C         138.8500  139.0222  165.7380 C.3     1  UNL1        0.2599
     30 C         138.0752  137.8772  166.3199 C.3     1  UNL1        0.4340
     31 F         137.3004  136.7321  166.9018 F       1  UNL1       -0.1664
     32 F         137.3168  138.8334  167.1920 F       1  UNL1       -0.1664
     33 F         138.8335  136.9209  165.4479 F       1  UNL1       -0.1664
@<TRIPOS>BOND
     1    28    29    1
     2    29    27    1
     3    27     1    1
     4     1     2   ar
     5     2     3   ar
     6     3     4   ar
     7     4    23    1
     8    23    24    1
     9    23    25    2
    10    23    26    2
    11     4     5   ar
    12     5     6   ar
    13     6     7    1
    14     7     8    2
    15     7     9   am
    16     9    10    1
    17    10    11    1
    18    11    12    1
    19    12    15    1
    20    15    16   ar
    21    16    17   ar
    22    17    18   ar
    23    18    21    1
    24    21    22    3
    25    18    19   ar
    26    19    20   ar
    27    12    13    1
    28    13    14    1
    29    29    30    1
    30    30    31    1
    31    30    32    1
    32    30    33    1
    33     6     1   ar
    34    14     9    1
    35    20    15   ar
@<TRIPOS>MOLECULE
*****
 33 35 0 0 0
SMALL
GASTEIGER

@<TRIPOS>ATOM
      1 C         138.9929  140.3023  166.2923 C.ar    1  UNL1        0.1432
      2 C         139.3248  139.6462  167.5997 C.ar    1  UNL1        0.0384
      3 C         140.2050  140.3497  168.5898 C.ar    1  UNL1        0.0215
      4 C         140.7533  141.7093  168.2725 C.ar    1  UNL1        0.1061
      5 C         140.4215  142.3654  166.9651 C.ar    1  UNL1        0.0259
      6 C         139.5413  141.6619  165.9750 C.ar    1  UNL1        0.0887
      7 C         139.2095  142.3181  164.6675 C.2     1  UNL1        0.2521
      8 O         137.9621  143.1407  164.5365 O.2     1  UNL1       -0.2698
      9 N         140.1251  142.1516  163.4911 N.am    1  UNL1       -0.2725
     10 C         141.3726  141.3288  163.6222 C.3     1  UNL1        0.1151
     11 C         142.2882  141.1623  162.4458 C.3     1  UNL1        0.1123
     12 N         141.9564  141.8185  161.1384 N.pl3   1  UNL1       -0.3041
     13 C         140.7090  142.6412  161.0073 C.3     1  UNL1        0.1123
     14 C         139.7934  142.8077  162.1837 C.3     1  UNL1        0.1151
     15 C         142.8720  141.6520  159.9620 C.ar    1  UNL1        0.0480
     16 C         143.8811  142.7144  159.6407 C.ar    1  UNL1        0.0152
     17 C         144.7967  142.5479  158.4643 C.ar    1  UNL1        0.0115
     18 C         144.7033  141.3190  157.6092 C.ar    1  UNL1        0.0685
     19 C         143.6942  140.2567  157.9305 C.ar    1  UNL1        0.0115
     20 C         142.7786  140.4232  159.1069 C.ar    1  UNL1        0.0152
     21 C         145.6189  141.1524  156.4328 C.1     1  UNL1        0.1004
     22 N         146.5345  140.9859  155.2564 N.1     1  UNL1       -0.1908
     23 S         141.6335  142.4128  169.2627 S.O2    1  UNL1        0.0105
     24 C         142.5137  143.1163  170.2528 C.3     1  UNL1        0.1816
     25 O         140.5899  143.4763  169.4348 O.2     1  UNL1       -0.1686
     26 O         142.6772  141.3492  169.0906 O.2     1  UNL1       -0.1686
     27 O         138.1127  139.5988  165.3022 O.3     1  UNL1       -0.4702
     28 C         138.3535  139.0178  162.7814 C.3     1  UNL1        0.0566
     29 C         138.7238  138.7677  164.2133 C.3     1  UNL1        0.2599
     30 C         139.7052  137.6863  164.5562 C.3     1  UNL1        0.4340
     31 F         140.6865  136.6049  164.8992 F       1  UNL1       -0.1664
     32 F         140.6926  138.2771  163.5940 F       1  UNL1       -0.1664
     33 F         138.7178  137.0954  165.5184 F       1  UNL1       -0.1664
@<TRIPOS>BOND
     1    28    29    1
     2    29    27    1
     3    27     1    1
     4     1     2   ar
     5     2     3   ar
     6     3     4   ar
     7     4    23    1
     8    23    24    1
     9    23    25    2
    10    23    26    2
    11     4     5   ar
    12     5     6   ar
    13     6     7    1
    14     7     8    2
    15     7     9   am
    16     9    10    1
    17    10    11    1
    18    11    12    1
    19    12    15    1
    20    15    16   ar
    21    16    17   ar
    22    17    18   ar
    23    18    21    1
    24    21    22    3
    25    18    19   ar
    26    19    20   ar
    27    12    13    1
    28    13    14    1
    29    29    30    1
    30    30    31    1
    31    30    32    1
    32    30    33    1
    33     6     1   ar
    34    14     9    1
    35    20    15   ar
@<TRIPOS>MOLECULE
*****
 33 35 0 0 0
SMALL
GASTEIGER

@<TRIPOS>ATOM
      1 C         140.8329  139.9252  167.1202 C.ar    1  UNL1        0.1432
      2 C         139.9589  140.6555  168.0962 C.ar    1  UNL1        0.0384
      3 C         140.5688  141.6040  169.0853 C.ar    1  UNL1        0.0215
      4 C         142.0528  141.8221  169.0985 C.ar    1  UNL1        0.1061
      5 C         142.9268  141.0917  168.1225 C.ar    1  UNL1        0.0259
      6 C         142.3169  140.1433  167.1334 C.ar    1  UNL1        0.0887
      7 C         143.1910  139.4129  166.1573 C.2     1  UNL1        0.2521
      8 O         143.9745  138.2141  166.6034 O.2     1  UNL1       -0.2698
      9 N         143.2816  139.8814  164.7353 N.am    1  UNL1       -0.2725
     10 C         142.4980  141.0802  164.2892 C.3     1  UNL1        0.1151
     11 C         142.5886  141.5487  162.8671 C.3     1  UNL1        0.1123
     12 N         143.4627  140.8183  161.8911 N.pl3   1  UNL1       -0.3041
     13 C         144.2462  139.6195  162.3372 C.3     1  UNL1        0.1123
     14 C         144.1556  139.1510  163.7592 C.3     1  UNL1        0.1151
     15 C         143.5533  141.2868  160.4690 C.ar    1  UNL1        0.0480
     16 C         143.3714  142.7401  160.1451 C.ar    1  UNL1        0.0152
     17 C         143.4619  143.2086  158.7230 C.ar    1  UNL1        0.0115
     18 C         143.7345  142.2238  157.6248 C.ar    1  UNL1        0.0685
     19 C         143.9164  140.7706  157.9488 C.ar    1  UNL1        0.0115
     20 C         143.8259  140.3021  159.3709 C.ar    1  UNL1        0.0152
     21 C         143.8251  142.6923  156.2028 C.1     1  UNL1        0.1004
     22 N         143.9157  143.1607  154.7807 N.1     1  UNL1       -0.1908
     23 S         142.6628  142.7705  170.0877 S.O2    1  UNL1        0.0105
     24 C         143.2727  143.7189  171.0768 C.3     1  UNL1        0.1816
     25 O         141.3692  142.8116  170.8459 O.2     1  UNL1       -0.1686
     26 O         143.9563  142.7294  169.3294 O.2     1  UNL1       -0.1686
     27 O         140.2230  138.9767  166.1310 O.3     1  UNL1       -0.4702
     28 C         138.0610  139.9887  165.1056 C.3     1  UNL1        0.0566
     29 C         138.7352  138.9430  165.9435 C.3     1  UNL1        0.2599
     30 C         137.9214  137.8636  166.5938 C.3     1  UNL1        0.4340
     31 F         137.1078  136.7843  167.2441 F       1  UNL1       -0.1664
     32 F         138.5168  136.8521  165.6599 F       1  UNL1       -0.1664
     33 F         137.3261  138.8752  167.5277 F       1  UNL1       -0.1664
@<TRIPOS>BOND
     1    28    29    1
     2    29    27    1
     3    27     1    1
     4     1     2   ar
     5     2     3   ar
     6     3     4   ar
     7     4    23    1
     8    23    24    1
     9    23    25    2
    10    23    26    2
    11     4     5   ar
    12     5     6   ar
    13     6     7    1
    14     7     8    2
    15     7     9   am
    16     9    10    1
    17    10    11    1
    18    11    12    1
    19    12    15    1
    20    15    16   ar
    21    16    17   ar
    22    17    18   ar
    23    18    21    1
    24    21    22    3
    25    18    19   ar
    26    19    20   ar
    27    12    13    1
    28    13    14    1
    29    29    30    1
    30    30    31    1
    31    30    32    1
    32    30    33    1
    33     6     1   ar
    34    14     9    1
    35    20    15   ar
@<TRIPOS>MOLECULE
*****
 33 35 0 0 0
SMALL
GASTEIGER

@<TRIPOS>ATOM
      1 C         142.0720  139.0625  166.2556 C.ar    1  UNL1        0.1432
      2 C         142.8692  139.3649  167.4896 C.ar    1  UNL1        0.0384
      3 C         142.2963  140.2534  168.5537 C.ar    1  UNL1        0.0215
      4 C         140.9261  140.8395  168.3837 C.ar    1  UNL1        0.1061
      5 C         140.1288  140.5371  167.1497 C.ar    1  UNL1        0.0259
      6 C         140.7018  139.6486  166.0856 C.ar    1  UNL1        0.0887
      7 C         139.9044  139.3462  164.8516 C.2     1  UNL1        0.2521
      8 O         139.0742  138.0988  164.7820 O.2     1  UNL1       -0.2698
      9 N         139.9372  140.2912  163.6872 N.am    1  UNL1       -0.2725
     10 C         140.7675  141.5386  163.7568 C.3     1  UNL1        0.1151
     11 C         140.8003  142.4836  162.5924 C.3     1  UNL1        0.1123
     12 N         140.0030  142.1812  161.3583 N.pl3   1  UNL1       -0.3041
     13 C         139.1728  140.9338  161.2887 C.3     1  UNL1        0.1123
     14 C         139.1400  139.9888  162.4531 C.3     1  UNL1        0.1151
     15 C         140.0358  143.1262  160.1939 C.ar    1  UNL1        0.0480
     16 C         140.5279  144.5308  160.3816 C.ar    1  UNL1        0.0152
     17 C         140.5608  145.4758  159.2171 C.ar    1  UNL1        0.0115
     18 C         140.1015  145.0163  157.8651 C.ar    1  UNL1        0.0685
     19 C         139.6094  143.6118  157.6775 C.ar    1  UNL1        0.0115
     20 C         139.5766  142.6668  158.8419 C.ar    1  UNL1        0.0152
     21 C         140.1344  145.9613  156.7007 C.1     1  UNL1        0.1004
     22 N         140.1672  146.9063  155.5362 N.1     1  UNL1       -0.1908
     23 S         140.3531  141.7280  169.4478 S.O2    1  UNL1        0.0105
     24 C         139.7802  142.6165  170.5119 C.3     1  UNL1        0.1816
     25 O         141.4816  142.6957  169.2474 O.2     1  UNL1       -0.1686
     26 O         139.2247  140.7603  169.6482 O.2     1  UNL1       -0.1686
     27 O         142.6449  138.1739  165.1915 O.3     1  UNL1       -0.4702
     28 C         142.8822  138.4513  162.6192 C.3     1  UNL1        0.0566
     29 C         143.3447  138.7753  164.0089 C.3     1  UNL1        0.2599
     30 C         144.5070  139.7007  164.2159 C.3     1  UNL1        0.4340
     31 F         145.6692  140.6261  164.4229 F       1  UNL1       -0.1664
     32 F         143.8678  140.7071  163.3056 F       1  UNL1       -0.1664
     33 F         145.1461  138.6943  165.1261 F       1  UNL1       -0.1664
@<TRIPOS>BOND
     1    28    29    1
     2    29    27    1
     3    27     1    1
     4     1     2   ar
     5     2     3   ar
     6     3     4   ar
     7     4    23    1
     8    23    24    1
     9    23    25    2
    10    23    26    2
    11     4     5   ar
    12     5     6   ar
    13     6     7    1
    14     7     8    2
    15     7     9   am
    16     9    10    1
    17    10    11    1
    18    11    12    1
    19    12    15    1
    20    15    16   ar
    21    16    17   ar
    22    17    18   ar
    23    18    21    1
    24    21    22    3
    25    18    19   ar
    26    19    20   ar
    27    12    13    1
    28    13    14    1
    29    29    30    1
    30    30    31    1
    31    30    32    1
    32    30    33    1
    33     6     1   ar
    34    14     9    1
    35    20    15   ar
@<TRIPOS>MOLECULE
*****
 33 35 0 0 0
SMALL
GASTEIGER

@<TRIPOS>ATOM
      1 C         140.0714  141.6818  158.6502 C.ar    1  UNL1        0.1432
      2 C         141.1850  141.7979  157.6521 C.ar    1  UNL1        0.0384
      3 C         141.9256  140.5712  157.2085 C.ar    1  UNL1        0.0215
      4 C         141.5525  139.2283  157.7631 C.ar    1  UNL1        0.1061
      5 C         140.4388  139.1122  158.7612 C.ar    1  UNL1        0.0259
      6 C         139.6983  140.3389  159.2048 C.ar    1  UNL1        0.0887
      7 C         138.5846  140.2228  160.2029 C.2     1  UNL1        0.2521
      8 O         137.1977  139.8834  159.7432 O.2     1  UNL1       -0.2698
      9 N         138.8578  140.4460  161.6608 N.am    1  UNL1       -0.2725
     10 C         140.2448  140.7854  162.1206 C.3     1  UNL1        0.1151
     11 C         140.5180  141.0086  163.5785 C.3     1  UNL1        0.1123
     12 N         139.4043  140.8925  164.5767 N.pl3   1  UNL1       -0.3041
     13 C         138.0175  140.5531  164.1169 C.3     1  UNL1        0.1123
     14 C         137.7442  140.3299  162.6590 C.3     1  UNL1        0.1151
     15 C         139.6776  141.1157  166.0346 C.ar    1  UNL1        0.0480
     16 C         140.2633  142.4169  166.4972 C.ar    1  UNL1        0.0152
     17 C         140.5365  142.6401  167.9551 C.ar    1  UNL1        0.0115
     18 C         140.2241  141.5621  168.9504 C.ar    1  UNL1        0.0685
     19 C         139.6384  140.2610  168.4877 C.ar    1  UNL1        0.0115
     20 C         139.3652  140.0378  167.0298 C.ar    1  UNL1        0.0152
     21 C         140.4973  141.7854  170.4083 C.1     1  UNL1        0.1004
     22 N         140.7706  142.0086  171.8662 N.1     1  UNL1       -0.1908
     23 S         142.2930  138.0016  157.3195 S.O2    1  UNL1        0.0105
     24 C         143.0335  136.7749  156.8759 C.3     1  UNL1        0.1816
     25 O         143.5974  138.7029  157.5577 O.2     1  UNL1       -0.1686
     26 O         140.9886  137.3003  157.0813 O.2     1  UNL1       -0.1686
     27 O         139.3309  142.9085  159.0938 O.3     1  UNL1       -0.4702
     28 C         140.3315  145.2608  158.6301 C.3     1  UNL1        0.0566
     29 C         140.0899  144.1133  159.5653 C.3     1  UNL1        0.2599
     30 C         140.6073  144.1705  160.9721 C.3     1  UNL1        0.4340
     31 F         141.1247  144.2278  162.3789 F       1  UNL1       -0.1664
     32 F         139.2346  143.8580  161.4898 F       1  UNL1       -0.1664
     33 F         141.9800  144.4830  160.4545 F       1  UNL1       -0.1664
@<TRIPOS>BOND
     1    28    29    1
     2    29    27    1
     3    27     1    1
     4     1     2   ar
     5     2     3   ar
     6     3     4   ar
     7     4    23    1
     8    23    24    1
     9    23    25    2
    10    23    26    2
    11     4     5   ar
    12     5     6   ar
    13     6     7    1
    14     7     8    2
    15     7     9   am
    16     9    10    1
    17    10    11    1
    18    11    12    1
    19    12    15    1
    20    15    16   ar
    21    16    17   ar
    22    17    18   ar
    23    18    21    1
    24    21    22    3
    25    18    19   ar
    26    19    20   ar
    27    12    13    1
    28    13    14    1
    29    29    30    1
    30    30    31    1
    31    30    32    1
    32    30    33    1
    33     6     1   ar
    34    14     9    1
    35    20    15   ar
@<TRIPOS>MOLECULE
*****
 33 35 0 0 0
SMALL
GASTEIGER

@<TRIPOS>ATOM
      1 C         141.8748  139.1479  166.6109 C.ar    1  UNL1        0.1432
      2 C         142.6856  139.4535  167.8353 C.ar    1  UNL1        0.0384
      3 C         142.1539  140.4006  168.8698 C.ar    1  UNL1        0.0215
      4 C         140.8114  141.0422  168.6799 C.ar    1  UNL1        0.1061
      5 C         140.0007  140.7367  167.4555 C.ar    1  UNL1        0.0259
      6 C         140.5323  139.7895  166.4210 C.ar    1  UNL1        0.0887
      7 C         139.7215  139.4840  165.1965 C.2     1  UNL1        0.2521
      8 O         138.8400  138.2708  165.1642 O.2     1  UNL1       -0.2698
      9 N         139.7922  140.3917  164.0044 N.am    1  UNL1       -0.2725
     10 C         140.6737  141.6049  164.0368 C.3     1  UNL1        0.1151
     11 C         140.7445  142.5126  162.8447 C.3     1  UNL1        0.1123
     12 N         139.9336  142.2071  161.6202 N.pl3   1  UNL1       -0.3041
     13 C         139.0521  140.9939  161.5879 C.3     1  UNL1        0.1123
     14 C         138.9814  140.0862  162.7800 C.3     1  UNL1        0.1151
     15 C         140.0043  143.1148  160.4281 C.ar    1  UNL1        0.0480
     16 C         139.5586  142.6224  159.0831 C.ar    1  UNL1        0.0152
     17 C         139.6293  143.5301  157.8910 C.ar    1  UNL1        0.0115
     18 C         140.1457  144.9301  158.0439 C.ar    1  UNL1        0.0685
     19 C         140.5914  145.4224  159.3889 C.ar    1  UNL1        0.0115
     20 C         140.5207  144.5147  160.5810 C.ar    1  UNL1        0.0152
     21 C         140.2164  145.8378  156.8518 C.1     1  UNL1        0.1004
     22 N         140.2871  146.7455  155.6597 N.1     1  UNL1       -0.1908
     23 S         140.2798  141.9894  169.7144 S.O2    1  UNL1        0.0105
     24 C         139.7481  142.9366  170.7489 C.3     1  UNL1        0.1816
     25 O         139.2401  140.9807  170.1036 O.2     1  UNL1       -0.1686
     26 O         141.3195  142.9981  169.3252 O.2     1  UNL1       -0.1686
     27 O         142.4065  138.2007  165.5764 O.3     1  UNL1       -0.4702
     28 C         144.4662  139.4363  164.5859 C.3     1  UNL1        0.0566
     29 C         143.1575  138.7297  164.3906 C.3     1  UNL1        0.2599
     30 C         142.5999  138.5521  163.0094 C.3     1  UNL1        0.4340
     31 F         142.0424  138.3745  161.6283 F       1  UNL1       -0.1664
     32 F         141.8158  137.3627  163.4789 F       1  UNL1       -0.1664
     33 F         143.3840  139.7415  162.5399 F       1  UNL1       -0.1664
@<TRIPOS>BOND
     1    28    29    1
     2    29    27    1
     3    27     1    1
     4     1     2   ar
     5     2     3   ar
     6     3     4   ar
     7     4    23    1
     8    23    24    1
     9    23    25    2
    10    23    26    2
    11     4     5   ar
    12     5     6   ar
    13     6     7    1
    14     7     8    2
    15     7     9   am
    16     9    10    1
    17    10    11    1
    18    11    12    1
    19    12    15    1
    20    15    16   ar
    21    16    17   ar
    22    17    18   ar
    23    18    21    1
    24    21    22    3
    25    18    19   ar
    26    19    20   ar
    27    12    13    1
    28    13    14    1
    29    29    30    1
    30    30    31    1
    31    30    32    1
    32    30    33    1
    33     6     1   ar
    34    14     9    1
    35    20    15   ar
@<TRIPOS>MOLECULE
*****
 33 35 0 0 0
SMALL
GASTEIGER

@<TRIPOS>ATOM
      1 C         136.7864  141.5440  156.4769 C.ar    1  UNL1        0.1432
      2 C         136.3378  142.7950  155.7815 C.ar    1  UNL1        0.0384
      3 C         137.3136  143.9074  155.5354 C.ar    1  UNL1        0.0215
      4 C         138.7380  143.7686  155.9847 C.ar    1  UNL1        0.1061
      5 C         139.1865  142.5175  156.6800 C.ar    1  UNL1        0.0259
      6 C         138.2107  141.4052  156.9261 C.ar    1  UNL1        0.0887
      7 C         138.6594  140.1541  157.6215 C.2     1  UNL1        0.2521
      8 O         139.0189  138.9383  156.8200 O.2     1  UNL1       -0.2698
      9 N         138.7484  140.1189  159.1185 N.am    1  UNL1       -0.2725
     10 C         138.3889  141.3348  159.9200 C.3     1  UNL1        0.1151
     11 C         138.4779  141.2995  161.4169 C.3     1  UNL1        0.1123
     12 N         138.9266  140.0484  162.1123 N.pl3   1  UNL1       -0.3041
     13 C         139.2861  138.8326  161.3108 C.3     1  UNL1        0.1123
     14 C         139.1971  138.8678  159.8139 C.3     1  UNL1        0.1151
     15 C         139.0156  140.0132  163.6093 C.ar    1  UNL1        0.0480
     16 C         139.3826  141.2540  164.3682 C.ar    1  UNL1        0.0152
     17 C         139.4717  141.2187  165.8651 C.ar    1  UNL1        0.0115
     18 C         139.1938  139.9427  166.6031 C.ar    1  UNL1        0.0685
     19 C         138.8268  138.7020  165.8443 C.ar    1  UNL1        0.0115
     20 C         138.7377  138.7373  164.3473 C.ar    1  UNL1        0.0152
     21 C         139.2828  139.9075  168.1001 C.1     1  UNL1        0.1004
     22 N         139.3719  139.8723  169.5970 N.1     1  UNL1       -0.1908
     23 S         139.7138  144.8809  155.7386 S.O2    1  UNL1        0.0105
     24 C         140.6896  145.9933  155.4925 C.3     1  UNL1        0.1816
     25 O         140.8530  143.9257  155.9382 O.2     1  UNL1       -0.1686
     26 O         138.5746  145.8361  155.5389 O.2     1  UNL1       -0.1686
     27 O         135.8106  140.4316  156.7229 O.3     1  UNL1       -0.4702
     28 C         135.1487  139.7732  154.2984 C.3     1  UNL1        0.0566
     29 C         134.7551  140.1206  155.7036 C.3     1  UNL1        0.2599
     30 C         133.3059  140.1571  156.0893 C.3     1  UNL1        0.4340
     31 F         131.8569  140.1936  156.4749 F       1  UNL1       -0.1664
     32 F         133.3831  138.7209  156.5151 F       1  UNL1       -0.1664
     33 F         133.2288  141.5933  155.6635 F       1  UNL1       -0.1664
@<TRIPOS>BOND
     1    28    29    1
     2    29    27    1
     3    27     1    1
     4     1     2   ar
     5     2     3   ar
     6     3     4   ar
     7     4    23    1
     8    23    24    1
     9    23    25    2
    10    23    26    2
    11     4     5   ar
    12     5     6   ar
    13     6     7    1
    14     7     8    2
    15     7     9   am
    16     9    10    1
    17    10    11    1
    18    11    12    1
    19    12    15    1
    20    15    16   ar
    21    16    17   ar
    22    17    18   ar
    23    18    21    1
    24    21    22    3
    25    18    19   ar
    26    19    20   ar
    27    12    13    1
    28    13    14    1
    29    29    30    1
    30    30    31    1
    31    30    32    1
    32    30    33    1
    33     6     1   ar
    34    14     9    1
    35    20    15   ar
@<TRIPOS>MOLECULE
*****
 33 35 0 0 0
SMALL
GASTEIGER

@<TRIPOS>ATOM
      1 C         141.4459  139.9884  164.9465 C.ar    1  UNL1        0.1432
      2 C         142.6141  139.7748  165.8627 C.ar    1  UNL1        0.0384
      3 C         142.7320  140.5740  167.1266 C.ar    1  UNL1        0.0215
      4 C         141.6817  141.5869  167.4742 C.ar    1  UNL1        0.1061
      5 C         140.5135  141.8005  166.5579 C.ar    1  UNL1        0.0259
      6 C         140.3956  141.0013  165.2941 C.ar    1  UNL1        0.0887
      7 C         139.2273  141.2150  164.3778 C.2     1  UNL1        0.2521
      8 O         137.8653  140.7258  164.7724 O.2     1  UNL1       -0.2698
      9 N         139.4210  141.9178  163.0669 N.am    1  UNL1       -0.2725
     10 C         140.7830  142.4070  162.6723 C.3     1  UNL1        0.1151
     11 C         140.9768  143.1099  161.3614 C.3     1  UNL1        0.1123
     12 N         139.8085  143.3236  160.4451 N.pl3   1  UNL1       -0.3041
     13 C         138.4465  142.8344  160.8397 C.3     1  UNL1        0.1123
     14 C         138.2528  142.1316  162.1506 C.3     1  UNL1        0.1151
     15 C         140.0022  144.0264  159.1342 C.ar    1  UNL1        0.0480
     16 C         139.3177  143.5157  157.9010 C.ar    1  UNL1        0.0152
     17 C         139.5114  144.2186  156.5901 C.ar    1  UNL1        0.0115
     18 C         140.3897  145.4322  156.5124 C.ar    1  UNL1        0.0685
     19 C         141.0741  145.9428  157.7456 C.ar    1  UNL1        0.0115
     20 C         140.8804  145.2400  159.0565 C.ar    1  UNL1        0.0152
     21 C         140.5834  146.1350  155.2015 C.1     1  UNL1        0.1004
     22 N         140.7771  146.8379  153.8906 N.1     1  UNL1       -0.1908
     23 S         141.7996  142.3861  168.7380 S.O2    1  UNL1        0.0105
     24 C         141.9175  143.1853  170.0019 C.3     1  UNL1        0.1816
     25 O         143.2464  142.6455  168.4390 O.2     1  UNL1       -0.1686
     26 O         140.3528  142.1267  169.0370 O.2     1  UNL1       -0.1686
     27 O         141.3280  139.1892  163.6826 O.3     1  UNL1       -0.4702
     28 C         141.1738  136.7024  164.4188 C.3     1  UNL1        0.0566
     29 C         140.5972  137.8792  163.6890 C.3     1  UNL1        0.2599
     30 C         139.2899  137.7461  162.9656 C.3     1  UNL1        0.4340
     31 F         137.9826  137.6131  162.2424 F       1  UNL1       -0.1664
     32 F         140.0173  137.7287  161.6540 F       1  UNL1       -0.1664
     33 F         138.5624  137.7636  164.2773 F       1  UNL1       -0.1664
@<TRIPOS>BOND
     1    28    29    1
     2    29    27    1
     3    27     1    1
     4     1     2   ar
     5     2     3   ar
     6     3     4   ar
     7     4    23    1
     8    23    24    1
     9    23    25    2
    10    23    26    2
    11     4     5   ar
    12     5     6   ar
    13     6     7    1
    14     7     8    2
    15     7     9   am
    16     9    10    1
    17    10    11    1
    18    11    12    1
    19    12    15    1
    20    15    16   ar
    21    16    17   ar
    22    17    18   ar
    23    18    21    1
    24    21    22    3
    25    18    19   ar
    26    19    20   ar
    27    12    13    1
    28    13    14    1
    29    29    30    1
    30    30    31    1
    31    30    32    1
    32    30    33    1
    33     6     1   ar
    34    14     9    1
    35    20    15   ar
@<TRIPOS>MOLECULE
*****
 33 35 0 0 0
SMALL
GASTEIGER

@<TRIPOS>ATOM
      1 C         141.0246  140.5087  165.2658 C.ar    1  UNL1        0.1432
      2 C         140.1003  140.4638  166.4463 C.ar    1  UNL1        0.0384
      3 C         140.4883  141.1380  167.7288 C.ar    1  UNL1        0.0215
      4 C         141.8007  141.8572  167.8308 C.ar    1  UNL1        0.1061
      5 C         142.7250  141.9021  166.6504 C.ar    1  UNL1        0.0259
      6 C         142.3370  141.2279  165.3679 C.ar    1  UNL1        0.0887
      7 C         143.2614  141.2729  164.1874 C.2     1  UNL1        0.2521
      8 O         144.5734  140.5474  164.2341 O.2     1  UNL1       -0.2698
      9 N         142.8737  142.0434  162.9601 N.am    1  UNL1       -0.2725
     10 C         141.5616  142.7689  162.9134 C.3     1  UNL1        0.1151
     11 C         141.1739  143.5393  161.6862 C.3     1  UNL1        0.1123
     12 N         142.0983  143.5843  160.5057 N.pl3   1  UNL1       -0.3041
     13 C         143.4103  142.8588  160.5525 C.3     1  UNL1        0.1123
     14 C         143.7980  142.0883  161.7797 C.3     1  UNL1        0.1151
     15 C         141.7106  144.3548  159.2785 C.ar    1  UNL1        0.0480
     16 C         142.5358  144.2428  158.0308 C.ar    1  UNL1        0.0152
     17 C         142.1481  145.0133  156.8036 C.ar    1  UNL1        0.0115
     18 C         140.9352  145.8957  156.8241 C.ar    1  UNL1        0.0685
     19 C         140.1101  146.0076  158.0717 C.ar    1  UNL1        0.0115
     20 C         140.4978  145.2372  159.2989 C.ar    1  UNL1        0.0152
     21 C         140.5475  146.6662  155.5968 C.1     1  UNL1        0.1004
     22 N         140.1598  147.4367  154.3696 N.1     1  UNL1       -0.1908
     23 S         142.1887  142.5315  169.1134 S.O2    1  UNL1        0.0105
     24 C         142.5767  143.2057  170.3959 C.3     1  UNL1        0.1816
     25 O         143.6030  142.6437  168.6264 O.2     1  UNL1       -0.1686
     26 O         140.7744  142.4192  169.6003 O.2     1  UNL1       -0.1686
     27 O         140.6366  139.8345  163.9833 O.3     1  UNL1       -0.4702
     28 C         141.4172  137.4343  164.5994 C.3     1  UNL1        0.0566
     29 C         140.4218  138.3503  163.9514 C.3     1  UNL1        0.2599
     30 C         139.2114  137.7821  163.2714 C.3     1  UNL1        0.4340
     31 F         138.0011  137.2140  162.5916 F       1  UNL1       -0.1664
     32 F         139.8804  137.9507  161.9396 F       1  UNL1       -0.1664
     33 F         138.5423  137.6136  164.6033 F       1  UNL1       -0.1664
@<TRIPOS>BOND
     1    28    29    1
     2    29    27    1
     3    27     1    1
     4     1     2   ar
     5     2     3   ar
     6     3     4   ar
     7     4    23    1
     8    23    24    1
     9    23    25    2
    10    23    26    2
    11     4     5   ar
    12     5     6   ar
    13     6     7    1
    14     7     8    2
    15     7     9   am
    16     9    10    1
    17    10    11    1
    18    11    12    1
    19    12    15    1
    20    15    16   ar
    21    16    17   ar
    22    17    18   ar
    23    18    21    1
    24    21    22    3
    25    18    19   ar
    26    19    20   ar
    27    12    13    1
    28    13    14    1
    29    29    30    1
    30    30    31    1
    31    30    32    1
    32    30    33    1
    33     6     1   ar
    34    14     9    1
    35    20    15   ar
