@<TRIPOS>MOLECULE
*****
 27 30 0 0 0
SMALL
GASTEIGER

@<TRIPOS>ATOM
      1 C         138.8953  137.3810  163.6382 C.3     1  UNL1        0.0577
      2 C         138.4347  138.7023  164.1784 C.3     1  UNL1        0.2459
      3 C         138.5220  138.9829  165.6494 C.ar    1  UNL1        0.2662
      4 N         137.6001  138.4485  166.7051 N.ar    1  UNL1       -0.1076
      5 N         138.0548  138.9823  168.0310 N.ar    1  UNL1       -0.1071
      6 C         139.2577  139.8467  167.7948 C.ar    1  UNL1        0.2498
      7 O         139.5465  139.8471  166.3228 O.2     1  UNL1       -0.4159
      8 C         140.0354  140.5817  168.8460 C.ar    1  UNL1        0.0560
      9 C         140.8997  139.8219  169.8082 C.ar    1  UNL1        0.0048
     10 C         141.6774  140.5569  170.8593 C.ar    1  UNL1        0.0010
     11 C         141.5908  142.0518  170.9483 C.ar    1  UNL1        0.0114
     12 C         140.7265  142.8116  169.9862 C.ar    1  UNL1        0.0578
     13 CL        140.6400  144.3064  170.0753 Cl      1  UNL1       -0.0822
     14 C         139.9488  142.0766  168.9350 C.ar    1  UNL1        0.0161
     15 O         137.8867  139.7432  163.2476 O.3     1  UNL1       -0.4409
     16 C         138.5702  141.0726  163.1231 C.ar    1  UNL1        0.3205
     17 N         137.8921  142.4068  163.0227 N.ar    1  UNL1       -0.0916
     18 N         138.9547  143.4599  162.9146 N.ar    1  UNL1       -0.1259
     19 C         140.2896  142.7767  162.9483 C.ar    1  UNL1        0.1689
     20 N         140.0520  141.3012  163.0771 N.ar    1  UNL1       -0.2635
     21 C         141.1103  140.2406  163.1476 C.3     1  UNL1        0.1366
     22 C         141.6273  143.4505  162.8673 C.ar    1  UNL1        0.0391
     23 C         142.6183  143.0275  161.8238 C.ar    1  UNL1        0.0237
     24 C         143.9559  143.7013  161.7428 C.ar    1  UNL1        0.0990
     25 N         144.3026  144.7982  162.7055 N.ar    1  UNL1       -0.2423
     26 C         143.3117  145.2213  163.7490 C.ar    1  UNL1        0.0990
     27 C         141.9741  144.5474  163.8299 C.ar    1  UNL1        0.0237
@<TRIPOS>BOND
     1     2     1    1
     2     2    15    1
     3    15    16    1
     4    16    17   ar
     5    17    18   ar
     6    18    19   ar
     7    19    22    1
     8    22    23   ar
     9    23    24   ar
    10    24    25   ar
    11    25    26   ar
    12    26    27   ar
    13    19    20   ar
    14    20    21    1
    15     2     3    1
    16     3     4   ar
    17     4     5   ar
    18     5     6   ar
    19     6     8    1
    20     8     9   ar
    21     9    10   ar
    22    10    11   ar
    23    11    12   ar
    24    12    13    1
    25    12    14   ar
    26     6     7   ar
    27    20    16   ar
    28     7     3   ar
    29    27    22   ar
    30    14     8   ar
@<TRIPOS>MOLECULE
*****
 27 30 0 0 0
SMALL
GASTEIGER

@<TRIPOS>ATOM
      1 C         138.2826  140.5652  158.0969 C.3     1  UNL1        0.0577
      2 C         138.2135  140.7205  159.5872 C.3     1  UNL1        0.2459
      3 C         138.9400  141.8483  160.2583 C.ar    1  UNL1        0.2662
      4 N         138.6452  143.3097  160.0922 N.ar    1  UNL1       -0.1076
      5 N         139.6117  144.0772  160.9445 N.ar    1  UNL1       -0.1071
      6 C         140.5039  143.0903  161.6373 C.ar    1  UNL1        0.2498
      7 O         140.0887  141.7127  161.2132 O.2     1  UNL1       -0.4159
      8 C         141.6161  143.4227  162.5874 C.ar    1  UNL1        0.0560
      9 C         142.3795  144.7043  162.4296 C.ar    1  UNL1        0.0048
     10 C         143.4916  145.0366  163.3797 C.ar    1  UNL1        0.0010
     11 C         143.8404  144.0873  164.4876 C.ar    1  UNL1        0.0114
     12 C         143.0770  142.8058  164.6454 C.ar    1  UNL1        0.0578
     13 CL        143.4257  141.8566  165.7532 Cl      1  UNL1       -0.0822
     14 C         141.9648  142.4735  163.6953 C.ar    1  UNL1        0.0161
     15 O         137.4178  139.7480  160.4065 O.3     1  UNL1       -0.4409
     16 C         137.9918  139.1904  161.6752 C.ar    1  UNL1        0.3205
     17 N         138.6869  137.8693  161.8226 N.ar    1  UNL1       -0.0916
     18 N         139.0962  137.7184  163.2578 N.ar    1  UNL1       -0.1259
     19 C         138.6541  138.9463  163.9974 C.ar    1  UNL1        0.1689
     20 N         137.9716  139.8560  163.0193 N.ar    1  UNL1       -0.2635
     21 C         137.3738  141.1960  163.3306 C.3     1  UNL1        0.1366
     22 C         138.8587  139.2169  165.4586 C.ar    1  UNL1        0.0391
     23 C         137.8300  138.7711  166.4551 C.ar    1  UNL1        0.0237
     24 C         138.0346  139.0417  167.9162 C.ar    1  UNL1        0.0990
     25 N         139.2678  139.7582  168.3808 N.ar    1  UNL1       -0.2423
     26 C         140.2964  140.2041  167.3843 C.ar    1  UNL1        0.0990
     27 C         140.0918  139.9334  165.9232 C.ar    1  UNL1        0.0237
@<TRIPOS>BOND
     1     2     1    1
     2     2    15    1
     3    15    16    1
     4    16    17   ar
     5    17    18   ar
     6    18    19   ar
     7    19    22    1
     8    22    23   ar
     9    23    24   ar
    10    24    25   ar
    11    25    26   ar
    12    26    27   ar
    13    19    20   ar
    14    20    21    1
    15     2     3    1
    16     3     4   ar
    17     4     5   ar
    18     5     6   ar
    19     6     8    1
    20     8     9   ar
    21     9    10   ar
    22    10    11   ar
    23    11    12   ar
    24    12    13    1
    25    12    14   ar
    26     6     7   ar
    27    20    16   ar
    28     7     3   ar
    29    27    22   ar
    30    14     8   ar
@<TRIPOS>MOLECULE
*****
 27 30 0 0 0
SMALL
GASTEIGER

@<TRIPOS>ATOM
      1 C         142.5453  140.2908  170.1765 C.3     1  UNL1        0.0577
      2 C         141.7989  139.9320  168.9259 C.3     1  UNL1        0.2459
      3 C         142.5439  139.4212  167.7283 C.ar    1  UNL1        0.2662
      4 N         143.4859  138.2541  167.7077 N.ar    1  UNL1       -0.1076
      5 N         144.0018  138.0995  166.3078 N.ar    1  UNL1       -0.1071
      6 C         143.3786  139.1710  165.4631 C.ar    1  UNL1        0.2498
      7 O         142.4775  139.9880  166.3411 O.2     1  UNL1       -0.4159
      8 C         143.6150  139.3877  163.9978 C.ar    1  UNL1        0.0560
      9 C         143.2153  138.3323  163.0095 C.ar    1  UNL1        0.0048
     10 C         143.4517  138.5489  161.5442 C.ar    1  UNL1        0.0010
     11 C         144.0876  139.8210  161.0671 C.ar    1  UNL1        0.0114
     12 C         144.4872  140.8763  162.0553 C.ar    1  UNL1        0.0578
     13 CL        145.1231  142.1482  161.5782 Cl      1  UNL1       -0.0822
     14 C         144.2509  140.6596  163.5206 C.ar    1  UNL1        0.0161
     15 O         140.3076  140.0839  168.8729 O.3     1  UNL1       -0.4409
     16 C         139.6106  140.1846  167.5485 C.ar    1  UNL1        0.3205
     17 N         138.7528  139.1261  166.9208 N.ar    1  UNL1       -0.0916
     18 N         138.2611  139.6488  165.6036 N.ar    1  UNL1       -0.1259
     19 C         138.8149  141.0303  165.4172 C.ar    1  UNL1        0.1689
     20 N         139.6489  141.3614  166.6192 N.ar    1  UNL1       -0.2635
     21 C         140.3910  142.6442  166.8512 C.3     1  UNL1        0.1366
     22 C         138.5766  141.9239  164.2361 C.ar    1  UNL1        0.0391
     23 C         138.9907  141.4803  162.8644 C.ar    1  UNL1        0.0237
     24 C         138.7523  142.3738  161.6834 C.ar    1  UNL1        0.0990
     25 N         138.0999  143.7109  161.8742 N.ar    1  UNL1       -0.2423
     26 C         137.6858  144.1545  163.2459 C.ar    1  UNL1        0.0990
     27 C         137.9241  143.2610  164.4269 C.ar    1  UNL1        0.0237
@<TRIPOS>BOND
     1     2     1    1
     2     2    15    1
     3    15    16    1
     4    16    17   ar
     5    17    18   ar
     6    18    19   ar
     7    19    22    1
     8    22    23   ar
     9    23    24   ar
    10    24    25   ar
    11    25    26   ar
    12    26    27   ar
    13    19    20   ar
    14    20    21    1
    15     2     3    1
    16     3     4   ar
    17     4     5   ar
    18     5     6   ar
    19     6     8    1
    20     8     9   ar
    21     9    10   ar
    22    10    11   ar
    23    11    12   ar
    24    12    13    1
    25    12    14   ar
    26     6     7   ar
    27    20    16   ar
    28     7     3   ar
    29    27    22   ar
    30    14     8   ar
@<TRIPOS>MOLECULE
*****
 27 30 0 0 0
SMALL
GASTEIGER

@<TRIPOS>ATOM
      1 C         140.6767  137.4342  163.7471 C.3     1  UNL1        0.0577
      2 C         139.4546  138.2262  164.1066 C.3     1  UNL1        0.2459
      3 C         139.2453  138.6821  165.5203 C.ar    1  UNL1        0.2662
      4 N         138.0537  138.3754  166.3783 N.ar    1  UNL1       -0.1076
      5 N         138.2627  139.0284  167.7123 N.ar    1  UNL1       -0.1071
      6 C         139.5834  139.7387  167.6789 C.ar    1  UNL1        0.2498
      7 O         140.1907  139.5247  166.3241 O.2     1  UNL1       -0.4159
      8 C         140.1903  140.5250  168.8029 C.ar    1  UNL1        0.0560
      9 C         140.9601  139.8208  169.8808 C.ar    1  UNL1        0.0048
     10 C         141.5670  140.6071  171.0048 C.ar    1  UNL1        0.0010
     11 C         141.4042  142.0976  171.0509 C.ar    1  UNL1        0.0114
     12 C         140.6345  142.8017  169.9731 C.ar    1  UNL1        0.0578
     13 CL        140.4717  144.2921  170.0193 Cl      1  UNL1       -0.0822
     14 C         140.0276  142.0154  168.8491 C.ar    1  UNL1        0.0161
     15 O         138.4419  138.5625  163.0524 O.3     1  UNL1       -0.4409
     16 C         138.3029  139.9758  162.5695 C.ar    1  UNL1        0.3205
     17 N         137.2551  140.9572  163.0044 N.ar    1  UNL1       -0.0916
     18 N         137.4919  142.2438  162.2706 N.ar    1  UNL1       -0.1259
     19 C         138.6861  142.0577  161.3822 C.ar    1  UNL1        0.1689
     20 N         139.1873  140.6560  161.5669 N.ar    1  UNL1       -0.2635
     21 C         140.3659  140.0422  160.8712 C.3     1  UNL1        0.1366
     22 C         139.2756  143.0917  160.4693 C.ar    1  UNL1        0.0391
     23 C         139.1776  142.9226  158.9821 C.ar    1  UNL1        0.0237
     24 C         139.7671  143.9566  158.0693 C.ar    1  UNL1        0.0990
     25 N         140.4546  145.1597  158.6437 N.ar    1  UNL1       -0.2423
     26 C         140.5526  145.3288  160.1308 C.ar    1  UNL1        0.0990
     27 C         139.9631  144.2948  161.0437 C.ar    1  UNL1        0.0237
@<TRIPOS>BOND
     1     2     1    1
     2     2    15    1
     3    15    16    1
     4    16    17   ar
     5    17    18   ar
     6    18    19   ar
     7    19    22    1
     8    22    23   ar
     9    23    24   ar
    10    24    25   ar
    11    25    26   ar
    12    26    27   ar
    13    19    20   ar
    14    20    21    1
    15     2     3    1
    16     3     4   ar
    17     4     5   ar
    18     5     6   ar
    19     6     8    1
    20     8     9   ar
    21     9    10   ar
    22    10    11   ar
    23    11    12   ar
    24    12    13    1
    25    12    14   ar
    26     6     7   ar
    27    20    16   ar
    28     7     3   ar
    29    27    22   ar
    30    14     8   ar
@<TRIPOS>MOLECULE
*****
 27 30 0 0 0
SMALL
GASTEIGER

@<TRIPOS>ATOM
      1 C         143.4689  145.1030  163.7982 C.3     1  UNL1        0.0577
      2 C         142.5329  144.1915  163.0614 C.3     1  UNL1        0.2459
      3 C         141.7415  144.7107  161.8976 C.ar    1  UNL1        0.2662
      4 N         140.3765  145.3290  161.9652 N.ar    1  UNL1       -0.1076
      5 N         139.9676  145.7031  160.5714 N.ar    1  UNL1       -0.1071
      6 C         141.0798  145.3160  159.6423 C.ar    1  UNL1        0.2498
      7 O         142.1762  144.7026  160.4620 O.2     1  UNL1       -0.4159
      8 C         141.0934  145.5085  158.1548 C.ar    1  UNL1        0.0560
      9 C         142.2081  144.9308  157.3339 C.ar    1  UNL1        0.0048
     10 C         142.2216  145.1232  155.8464 C.ar    1  UNL1        0.0010
     11 C         141.1204  145.8934  155.1797 C.ar    1  UNL1        0.0114
     12 C         140.0058  146.4711  156.0006 C.ar    1  UNL1        0.0578
     13 CL        138.9047  147.2412  155.3340 Cl      1  UNL1       -0.0822
     14 C         139.9923  146.2786  157.4881 C.ar    1  UNL1        0.0161
     15 O         142.3881  142.7608  163.4883 O.3     1  UNL1       -0.4409
     16 C         141.4561  142.4028  164.6077 C.ar    1  UNL1        0.3205
     17 N         139.9801  142.1658  164.4845 N.ar    1  UNL1       -0.0916
     18 N         139.4483  141.8355  165.8476 N.ar    1  UNL1       -0.1259
     19 C         140.5956  141.8683  166.8133 C.ar    1  UNL1        0.1689
     20 N         141.8365  142.2189  166.0470 N.ar    1  UNL1       -0.2635
     21 C         143.2157  142.3607  166.6194 C.3     1  UNL1        0.1366
     22 C         140.5160  141.5979  168.2866 C.ar    1  UNL1        0.0391
     23 C         140.6412  140.1938  168.7993 C.ar    1  UNL1        0.0237
     24 C         140.5616  139.9235  170.2726 C.ar    1  UNL1        0.0990
     25 N         140.3569  141.0573  171.2331 N.ar    1  UNL1       -0.2423
     26 C         140.2317  142.4613  170.7204 C.ar    1  UNL1        0.0990
     27 C         140.3113  142.7317  169.2472 C.ar    1  UNL1        0.0237
@<TRIPOS>BOND
     1     2     1    1
     2     2    15    1
     3    15    16    1
     4    16    17   ar
     5    17    18   ar
     6    18    19   ar
     7    19    22    1
     8    22    23   ar
     9    23    24   ar
    10    24    25   ar
    11    25    26   ar
    12    26    27   ar
    13    19    20   ar
    14    20    21    1
    15     2     3    1
    16     3     4   ar
    17     4     5   ar
    18     5     6   ar
    19     6     8    1
    20     8     9   ar
    21     9    10   ar
    22    10    11   ar
    23    11    12   ar
    24    12    13    1
    25    12    14   ar
    26     6     7   ar
    27    20    16   ar
    28     7     3   ar
    29    27    22   ar
    30    14     8   ar
@<TRIPOS>MOLECULE
*****
 27 30 0 0 0
SMALL
GASTEIGER

@<TRIPOS>ATOM
      1 C         137.7143  141.3677  163.3480 C.3     1  UNL1        0.0577
      2 C         138.0742  140.0043  163.8593 C.3     1  UNL1        0.2459
      3 C         138.3797  139.8054  165.3144 C.ar    1  UNL1        0.2662
      4 N         137.7150  138.8187  166.2279 N.ar    1  UNL1       -0.1076
      5 N         138.3279  138.9617  167.5894 N.ar    1  UNL1       -0.1071
      6 C         139.3715  140.0368  167.5173 C.ar    1  UNL1        0.2498
      7 O         139.4035  140.5582  166.1112 O.2     1  UNL1       -0.4159
      8 C         140.2320  140.5078  168.6521 C.ar    1  UNL1        0.0560
      9 C         139.8031  140.2662  170.0691 C.ar    1  UNL1        0.0048
     10 C         140.6636  140.7371  171.2038 C.ar    1  UNL1        0.0010
     11 C         141.9531  141.4497  170.9216 C.ar    1  UNL1        0.0114
     12 C         142.3820  141.6913  169.5047 C.ar    1  UNL1        0.0578
     13 CL        143.6714  142.4038  169.2226 Cl      1  UNL1       -0.0822
     14 C         141.5215  141.2203  168.3700 C.ar    1  UNL1        0.0161
     15 O         138.1287  138.8397  162.9155 O.3     1  UNL1       -0.4409
     16 C         139.4152  138.4918  162.2270 C.ar    1  UNL1        0.3205
     17 N         140.3812  137.4250  162.6500 N.ar    1  UNL1       -0.0916
     18 N         141.5245  137.4235  161.6790 N.ar    1  UNL1       -0.1259
     19 C         141.2652  138.4894  160.6560 C.ar    1  UNL1        0.1689
     20 N         139.9616  139.1496  160.9946 N.ar    1  UNL1       -0.2635
     21 C         139.3174  140.2708  160.2344 C.3     1  UNL1        0.1366
     22 C         142.1536  138.8345  159.4976 C.ar    1  UNL1        0.0391
     23 C         142.1079  138.0095  158.2456 C.ar    1  UNL1        0.0237
     24 C         142.9963  138.3547  157.0873 C.ar    1  UNL1        0.0990
     25 N         143.9302  139.5247  157.1809 N.ar    1  UNL1       -0.2423
     26 C         143.9758  140.3496  158.4329 C.ar    1  UNL1        0.0990
     27 C         143.0875  140.0045  159.5912 C.ar    1  UNL1        0.0237
@<TRIPOS>BOND
     1     2     1    1
     2     2    15    1
     3    15    16    1
     4    16    17   ar
     5    17    18   ar
     6    18    19   ar
     7    19    22    1
     8    22    23   ar
     9    23    24   ar
    10    24    25   ar
    11    25    26   ar
    12    26    27   ar
    13    19    20   ar
    14    20    21    1
    15     2     3    1
    16     3     4   ar
    17     4     5   ar
    18     5     6   ar
    19     6     8    1
    20     8     9   ar
    21     9    10   ar
    22    10    11   ar
    23    11    12   ar
    24    12    13    1
    25    12    14   ar
    26     6     7   ar
    27    20    16   ar
    28     7     3   ar
    29    27    22   ar
    30    14     8   ar
@<TRIPOS>MOLECULE
*****
 27 30 0 0 0
SMALL
GASTEIGER

@<TRIPOS>ATOM
      1 C         141.0173  145.1257  160.4252 C.3     1  UNL1        0.0577
      2 C         140.8393  144.5687  161.8065 C.3     1  UNL1        0.2459
      3 C         139.9118  143.4121  162.0351 C.ar    1  UNL1        0.2662
      4 N         138.5487  143.2426  161.4323 N.ar    1  UNL1       -0.1076
      5 N         137.9791  141.9478  161.9312 N.ar    1  UNL1       -0.1071
      6 C         138.9900  141.3171  162.8423 C.ar    1  UNL1        0.2498
      7 O         140.1846  142.2221  162.9065 O.2     1  UNL1       -0.4159
      8 C         138.8339  140.0107  163.5628 C.ar    1  UNL1        0.0560
      9 C         139.1123  138.7219  162.8476 C.ar    1  UNL1        0.0048
     10 C         138.9562  137.4155  163.5680 C.ar    1  UNL1        0.0010
     11 C         138.5217  137.3980  165.0037 C.ar    1  UNL1        0.0114
     12 C         138.2433  138.6868  165.7188 C.ar    1  UNL1        0.0578
     13 CL        137.8088  138.6693  167.1543 Cl      1  UNL1       -0.0822
     14 C         138.3994  139.9932  164.9983 C.ar    1  UNL1        0.0161
     15 O         141.5889  145.1681  162.9592 O.3     1  UNL1       -0.4409
     16 C         142.4118  144.2914  163.8560 C.ar    1  UNL1        0.3205
     17 N         143.8843  144.0351  163.7291 N.ar    1  UNL1       -0.0916
     18 N         144.2892  143.1024  164.8318 N.ar    1  UNL1       -0.1259
     19 C         143.0670  142.7822  165.6402 C.ar    1  UNL1        0.1689
     20 N         141.9067  143.5170  165.0372 N.ar    1  UNL1       -0.2635
     21 C         140.4900  143.4834  165.5289 C.3     1  UNL1        0.1366
     22 C         143.0143  141.8847  166.8410 C.ar    1  UNL1        0.0391
     23 C         142.6944  140.4286  166.6755 C.ar    1  UNL1        0.0237
     24 C         142.6417  139.5311  167.8763 C.ar    1  UNL1        0.0990
     25 N         142.9090  140.0898  169.2424 N.ar    1  UNL1       -0.2423
     26 C         143.2289  141.5459  169.4079 C.ar    1  UNL1        0.0990
     27 C         143.2816  142.4433  168.2072 C.ar    1  UNL1        0.0237
@<TRIPOS>BOND
     1     2     1    1
     2     2    15    1
     3    15    16    1
     4    16    17   ar
     5    17    18   ar
     6    18    19   ar
     7    19    22    1
     8    22    23   ar
     9    23    24   ar
    10    24    25   ar
    11    25    26   ar
    12    26    27   ar
    13    19    20   ar
    14    20    21    1
    15     2     3    1
    16     3     4   ar
    17     4     5   ar
    18     5     6   ar
    19     6     8    1
    20     8     9   ar
    21     9    10   ar
    22    10    11   ar
    23    11    12   ar
    24    12    13    1
    25    12    14   ar
    26     6     7   ar
    27    20    16   ar
    28     7     3   ar
    29    27    22   ar
    30    14     8   ar
@<TRIPOS>MOLECULE
*****
 27 30 0 0 0
SMALL
GASTEIGER

@<TRIPOS>ATOM
      1 C         141.0873  136.9050  163.7171 C.3     1  UNL1        0.0577
      2 C         142.0479  138.0270  163.9786 C.3     1  UNL1        0.2459
      3 C         142.3123  138.4755  165.3854 C.ar    1  UNL1        0.2662
      4 N         143.5285  138.1498  166.2008 N.ar    1  UNL1       -0.1076
      5 N         143.3748  138.8014  167.5430 N.ar    1  UNL1       -0.1071
      6 C         142.0637  139.5300  167.5572 C.ar    1  UNL1        0.2498
      7 O         141.4070  139.3286  166.2236 O.2     1  UNL1       -0.4159
      8 C         141.5070  140.3211  168.7036 C.ar    1  UNL1        0.0560
      9 C         141.2442  139.6510  170.0197 C.ar    1  UNL1        0.0048
     10 C         140.6875  140.4421  171.1661 C.ar    1  UNL1        0.0010
     11 C         140.3936  141.9032  170.9964 C.ar    1  UNL1        0.0114
     12 C         140.6564  142.5732  169.6803 C.ar    1  UNL1        0.0578
     13 CL        140.3624  144.0343  169.5107 Cl      1  UNL1       -0.0822
     14 C         141.2131  141.7821  168.5339 C.ar    1  UNL1        0.0161
     15 O         142.7442  138.7005  162.8333 O.3     1  UNL1       -0.4409
     16 C         142.7374  140.1966  162.7267 C.ar    1  UNL1        0.3205
     17 N         143.9029  141.1044  162.9868 N.ar    1  UNL1       -0.0916
     18 N         143.4498  142.5165  162.7621 N.ar    1  UNL1       -0.1259
     19 C         142.0043  142.4816  162.3632 C.ar    1  UNL1        0.1689
     20 N         141.5640  141.0478  162.3413 N.ar    1  UNL1       -0.2635
     21 C         140.1913  140.5522  161.9948 C.3     1  UNL1        0.1366
     22 C         141.1491  143.6715  162.0424 C.ar    1  UNL1        0.0391
     23 C         141.3055  144.3748  160.7268 C.ar    1  UNL1        0.0237
     24 C         140.4503  145.5646  160.4061 C.ar    1  UNL1        0.0990
     25 N         139.4388  146.0513  161.4011 N.ar    1  UNL1       -0.2423
     26 C         139.2824  145.3480  162.7167 C.ar    1  UNL1        0.0990
     27 C         140.1375  144.1581  163.0374 C.ar    1  UNL1        0.0237
@<TRIPOS>BOND
     1     2     1    1
     2     2    15    1
     3    15    16    1
     4    16    17   ar
     5    17    18   ar
     6    18    19   ar
     7    19    22    1
     8    22    23   ar
     9    23    24   ar
    10    24    25   ar
    11    25    26   ar
    12    26    27   ar
    13    19    20   ar
    14    20    21    1
    15     2     3    1
    16     3     4   ar
    17     4     5   ar
    18     5     6   ar
    19     6     8    1
    20     8     9   ar
    21     9    10   ar
    22    10    11   ar
    23    11    12   ar
    24    12    13    1
    25    12    14   ar
    26     6     7   ar
    27    20    16   ar
    28     7     3   ar
    29    27    22   ar
    30    14     8   ar
@<TRIPOS>MOLECULE
*****
 27 30 0 0 0
SMALL
GASTEIGER

@<TRIPOS>ATOM
      1 C         145.3900  138.6808  164.9274 C.3     1  UNL1        0.0577
      2 C         144.3963  139.6729  164.3998 C.3     1  UNL1        0.2459
      3 C         143.0698  139.8399  165.0800 C.ar    1  UNL1        0.2662
      4 N         141.7425  139.3884  164.5466 N.ar    1  UNL1       -0.1076
      5 N         140.6902  139.7572  165.5498 N.ar    1  UNL1       -0.1071
      6 C         141.3670  140.4365  166.7032 C.ar    1  UNL1        0.2498
      7 O         142.8378  140.4877  166.4128 O.2     1  UNL1       -0.4159
      8 C         140.6917  140.9710  167.9314 C.ar    1  UNL1        0.0560
      9 C         139.7982  140.0808  168.7434 C.ar    1  UNL1        0.0048
     10 C         139.1230  140.6152  169.9716 C.ar    1  UNL1        0.0010
     11 C         139.3412  142.0398  170.3877 C.ar    1  UNL1        0.0114
     12 C         140.2346  142.9299  169.5756 C.ar    1  UNL1        0.0578
     13 CL        140.4528  144.3544  169.9917 Cl      1  UNL1       -0.0822
     14 C         140.9099  142.3955  168.3475 C.ar    1  UNL1        0.0161
     15 O         144.7291  140.4980  163.1921 O.3     1  UNL1       -0.4409
     16 C         144.1753  141.8853  163.0558 C.ar    1  UNL1        0.3205
     17 N         144.7280  143.1225  163.6993 N.ar    1  UNL1       -0.0916
     18 N         143.8659  144.2809  163.2933 N.ar    1  UNL1       -0.1259
     19 C         142.7803  143.7597  162.3989 C.ar    1  UNL1        0.1689
     20 N         142.9716  142.2792  162.2522 N.ar    1  UNL1       -0.2635
     21 C         142.1103  141.3548  161.4436 C.3     1  UNL1        0.1366
     22 C         141.6942  144.5758  161.7629 C.ar    1  UNL1        0.0391
     23 C         140.7564  145.3738  162.6195 C.ar    1  UNL1        0.0237
     24 C         139.6704  146.1898  161.9834 C.ar    1  UNL1        0.0990
     25 N         139.5221  146.2078  160.4909 N.ar    1  UNL1       -0.2423
     26 C         140.4599  145.4098  159.6344 C.ar    1  UNL1        0.0990
     27 C         141.5459  144.5938  160.2704 C.ar    1  UNL1        0.0237
@<TRIPOS>BOND
     1     2     1    1
     2     2    15    1
     3    15    16    1
     4    16    17   ar
     5    17    18   ar
     6    18    19   ar
     7    19    22    1
     8    22    23   ar
     9    23    24   ar
    10    24    25   ar
    11    25    26   ar
    12    26    27   ar
    13    19    20   ar
    14    20    21    1
    15     2     3    1
    16     3     4   ar
    17     4     5   ar
    18     5     6   ar
    19     6     8    1
    20     8     9   ar
    21     9    10   ar
    22    10    11   ar
    23    11    12   ar
    24    12    13    1
    25    12    14   ar
    26     6     7   ar
    27    20    16   ar
    28     7     3   ar
    29    27    22   ar
    30    14     8   ar
