@<TRIPOS>MOLECULE
*****
 20 22 0 0 0
SMALL
GASTEIGER

@<TRIPOS>ATOM
      1 C         140.7908  144.4825  159.7803 C.ar    1  UNL1        0.1401
      2 C         139.8314  143.8447  158.8198 C.ar    1  UNL1        0.0370
      3 C         138.8665  142.8033  159.3038 C.ar    1  UNL1        0.0047
      4 C         138.8611  142.3996  160.7484 C.ar    1  UNL1        0.0193
      5 C         139.8205  143.0373  161.7090 C.ar    1  UNL1        0.0849
      6 N         139.8151  142.6336  163.1537 N.ar    1  UNL1       -0.2370
      7 C         140.7745  143.2714  164.1142 C.ar    1  UNL1        0.1228
      8 C         141.7394  144.3129  163.6301 C.ar    1  UNL1        0.0277
      9 C         141.7449  144.7166  162.1855 C.ar    1  UNL1        0.0067
     10 C         140.7854  144.0788  161.2249 C.ar    1  UNL1        0.0517
     11 C         141.8617  145.8248  157.8305 C.3     1  UNL1        0.2525
     12 O         141.7557  145.5240  159.2962 O.3     1  UNL1       -0.4714
     13 C         140.7691  142.8677  165.5589 C.1     1  UNL1       -0.0404
     14 C         140.7638  142.4640  167.0035 C.1     1  UNL1       -0.0567
     15 C         140.7584  142.0603  168.4481 C.ar    1  UNL1        0.0612
     16 C         140.1221  140.7668  168.8631 C.ar    1  UNL1        0.0114
     17 C         140.1168  140.3631  170.3077 C.ar    1  UNL1        0.0213
     18 C         140.7477  141.2528  171.3374 C.ar    1  UNL1        0.0989
     19 N         141.3839  142.5462  170.9225 N.ar    1  UNL1       -0.2417
     20 C         141.3893  142.9500  169.4779 C.ar    1  UNL1        0.1071
@<TRIPOS>BOND
     1    11    12    1
     2    12     1    1
     3     1     2   ar
     4     2     3   ar
     5     3     4   ar
     6     4     5   ar
     7     5     6   ar
     8     6     7   ar
     9     7    13    1
    10    13    14    3
    11    14    15    1
    12    15    16   ar
    13    16    17   ar
    14    17    18   ar
    15    18    19   ar
    16    19    20   ar
    17     7     8   ar
    18     8     9   ar
    19     9    10   ar
    20    10     1   ar
    21    10     5   ar
    22    20    15   ar
@<TRIPOS>MOLECULE
*****
 20 22 0 0 0
SMALL
GASTEIGER

@<TRIPOS>ATOM
      1 C         142.3019  140.5926  170.0844 C.ar    1  UNL1        0.1401
      2 C         141.4808  141.0482  171.2541 C.ar    1  UNL1        0.0370
      3 C         140.4383  142.1109  171.0701 C.ar    1  UNL1        0.0047
      4 C         140.2170  142.7180  169.7165 C.ar    1  UNL1        0.0193
      5 C         141.0381  142.2624  168.5468 C.ar    1  UNL1        0.0849
      6 N         140.8167  142.8695  167.1931 N.ar    1  UNL1       -0.2370
      7 C         141.6378  142.4139  166.0234 C.ar    1  UNL1        0.1228
      8 C         142.6803  141.3511  166.2074 C.ar    1  UNL1        0.0277
      9 C         142.9017  140.7440  167.5611 C.ar    1  UNL1        0.0067
     10 C         142.0806  141.1997  168.7308 C.ar    1  UNL1        0.0517
     11 C         142.9464  138.0837  170.2855 C.3     1  UNL1        0.2525
     12 O         143.3444  139.5298  170.2684 O.3     1  UNL1       -0.4714
     13 C         141.4165  143.0210  164.6697 C.1     1  UNL1       -0.0404
     14 C         141.1952  143.6280  163.3160 C.1     1  UNL1       -0.0567
     15 C         140.9739  144.2351  161.9624 C.ar    1  UNL1        0.0612
     16 C         141.7888  143.7729  160.7908 C.ar    1  UNL1        0.0114
     17 C         141.5675  144.3800  159.4371 C.ar    1  UNL1        0.0213
     18 C         140.5314  145.4492  159.2549 C.ar    1  UNL1        0.0989
     19 N         139.7165  145.9114  160.4264 N.ar    1  UNL1       -0.2417
     20 C         139.9378  145.3043  161.7802 C.ar    1  UNL1        0.1071
@<TRIPOS>BOND
     1    11    12    1
     2    12     1    1
     3     1     2   ar
     4     2     3   ar
     5     3     4   ar
     6     4     5   ar
     7     5     6   ar
     8     6     7   ar
     9     7    13    1
    10    13    14    3
    11    14    15    1
    12    15    16   ar
    13    16    17   ar
    14    17    18   ar
    15    18    19   ar
    16    19    20   ar
    17     7     8   ar
    18     8     9   ar
    19     9    10   ar
    20    10     1   ar
    21    10     5   ar
    22    20    15   ar
@<TRIPOS>MOLECULE
*****
 20 22 0 0 0
SMALL
GASTEIGER

@<TRIPOS>ATOM
      1 C         139.9556  141.1113  167.8101 C.ar    1  UNL1        0.1401
      2 C         139.1957  139.8705  168.1745 C.ar    1  UNL1        0.0370
      3 C         138.4243  139.1279  167.1240 C.ar    1  UNL1        0.0047
      4 C         138.4129  139.6261  165.7092 C.ar    1  UNL1        0.0193
      5 C         139.1729  140.8669  165.3449 C.ar    1  UNL1        0.0849
      6 N         139.1615  141.3651  163.9301 N.ar    1  UNL1       -0.2370
      7 C         139.9215  142.6059  163.5657 C.ar    1  UNL1        0.1228
      8 C         140.6928  143.3486  164.6162 C.ar    1  UNL1        0.0277
      9 C         140.7042  142.8504  166.0310 C.ar    1  UNL1        0.0067
     10 C         139.9442  141.6095  166.3954 C.ar    1  UNL1        0.0517
     11 C         140.0354  142.3281  170.1043 C.3     1  UNL1        0.2525
     12 O         140.7270  141.8540  168.8606 O.3     1  UNL1       -0.4714
     13 C         139.9101  143.1041  162.1509 C.1     1  UNL1       -0.0404
     14 C         139.8988  143.6024  160.7361 C.1     1  UNL1       -0.0567
     15 C         139.8874  144.1006  159.3214 C.ar    1  UNL1        0.0612
     16 C         140.4763  145.4406  158.9933 C.ar    1  UNL1        0.0114
     17 C         140.4650  145.9388  157.5786 C.ar    1  UNL1        0.0213
     18 C         139.8648  145.0970  156.4918 C.ar    1  UNL1        0.0989
     19 N         139.2759  143.7571  156.8197 N.ar    1  UNL1       -0.2417
     20 C         139.2872  143.2588  158.2345 C.ar    1  UNL1        0.1071
@<TRIPOS>BOND
     1    11    12    1
     2    12     1    1
     3     1     2   ar
     4     2     3   ar
     5     3     4   ar
     6     4     5   ar
     7     5     6   ar
     8     6     7   ar
     9     7    13    1
    10    13    14    3
    11    14    15    1
    12    15    16   ar
    13    16    17   ar
    14    17    18   ar
    15    18    19   ar
    16    19    20   ar
    17     7     8   ar
    18     8     9   ar
    19     9    10   ar
    20    10     1   ar
    21    10     5   ar
    22    20    15   ar
@<TRIPOS>MOLECULE
*****
 20 22 0 0 0
SMALL
GASTEIGER

@<TRIPOS>ATOM
      1 C         138.8362  139.6107  159.4556 C.ar    1  UNL1        0.1401
      2 C         139.9277  138.9387  158.6765 C.ar    1  UNL1        0.0370
      3 C         141.2223  138.5884  159.3484 C.ar    1  UNL1        0.0047
      4 C         141.4253  138.9100  160.7994 C.ar    1  UNL1        0.0193
      5 C         140.3337  139.5820  161.5784 C.ar    1  UNL1        0.0849
      6 N         140.5367  139.9036  163.0295 N.ar    1  UNL1       -0.2370
      7 C         139.4452  140.5756  163.8085 C.ar    1  UNL1        0.1228
      8 C         138.1506  140.9259  163.1366 C.ar    1  UNL1        0.0277
      9 C         137.9476  140.6043  161.6857 C.ar    1  UNL1        0.0067
     10 C         139.0392  139.9323  160.9065 C.ar    1  UNL1        0.0517
     11 C         137.5173  140.9906  157.6932 C.3     1  UNL1        0.2525
     12 O         137.5417  139.9610  158.7837 O.3     1  UNL1       -0.4714
     13 C         139.6481  140.8972  165.2596 C.1     1  UNL1       -0.0404
     14 C         139.8511  141.2188  166.7105 C.1     1  UNL1       -0.0567
     15 C         140.0540  141.5404  168.1615 C.ar    1  UNL1        0.0612
     16 C         140.5860  142.8838  168.5647 C.ar    1  UNL1        0.0114
     17 C         140.7889  143.2054  170.0157 C.ar    1  UNL1        0.0213
     18 C         140.4600  142.1837  171.0635 C.ar    1  UNL1        0.0989
     19 N         139.9281  140.8404  170.6603 N.ar    1  UNL1       -0.2417
     20 C         139.7251  140.5187  169.2093 C.ar    1  UNL1        0.1071
@<TRIPOS>BOND
     1    11    12    1
     2    12     1    1
     3     1     2   ar
     4     2     3   ar
     5     3     4   ar
     6     4     5   ar
     7     5     6   ar
     8     6     7   ar
     9     7    13    1
    10    13    14    3
    11    14    15    1
    12    15    16   ar
    13    16    17   ar
    14    17    18   ar
    15    18    19   ar
    16    19    20   ar
    17     7     8   ar
    18     8     9   ar
    19     9    10   ar
    20    10     1   ar
    21    10     5   ar
    22    20    15   ar
@<TRIPOS>MOLECULE
*****
 20 22 0 0 0
SMALL
GASTEIGER

@<TRIPOS>ATOM
      1 C         144.4702  142.7456  162.6570 C.ar    1  UNL1        0.1401
      2 C         145.0254  142.3689  163.9985 C.ar    1  UNL1        0.0370
      3 C         145.2057  140.9234  164.3566 C.ar    1  UNL1        0.0047
      4 C         144.8308  139.8547  163.3731 C.ar    1  UNL1        0.0193
      5 C         144.2757  140.2315  162.0315 C.ar    1  UNL1        0.0849
      6 N         143.9008  139.1628  161.0479 N.ar    1  UNL1       -0.2370
      7 C         143.3457  139.5395  159.7064 C.ar    1  UNL1        0.1228
      8 C         143.1654  140.9849  159.3483 C.ar    1  UNL1        0.0277
      9 C         143.5402  142.0536  160.3318 C.ar    1  UNL1        0.0067
     10 C         144.0954  141.6769  161.6735 C.ar    1  UNL1        0.0517
     11 C         143.6825  145.1391  163.2900 C.3     1  UNL1        0.2525
     12 O         144.2899  144.1911  162.2989 O.3     1  UNL1       -0.4714
     13 C         142.9708  138.4708  158.7228 C.1     1  UNL1       -0.0404
     14 C         142.5960  137.4021  157.7392 C.1     1  UNL1       -0.0567
     15 C         142.2212  136.3335  156.7556 C.ar    1  UNL1        0.0612
     16 C         142.9565  135.0260  156.7521 C.ar    1  UNL1        0.0114
     17 C         142.5817  133.9574  155.7686 C.ar    1  UNL1        0.0213
     18 C         141.4716  134.1961  154.7885 C.ar    1  UNL1        0.0989
     19 N         140.7362  135.5034  154.7920 N.ar    1  UNL1       -0.2417
     20 C         141.1110  136.5721  155.7755 C.ar    1  UNL1        0.1071
@<TRIPOS>BOND
     1    11    12    1
     2    12     1    1
     3     1     2   ar
     4     2     3   ar
     5     3     4   ar
     6     4     5   ar
     7     5     6   ar
     8     6     7   ar
     9     7    13    1
    10    13    14    3
    11    14    15    1
    12    15    16   ar
    13    16    17   ar
    14    17    18   ar
    15    18    19   ar
    16    19    20   ar
    17     7     8   ar
    18     8     9   ar
    19     9    10   ar
    20    10     1   ar
    21    10     5   ar
    22    20    15   ar
@<TRIPOS>MOLECULE
*****
 20 22 0 0 0
SMALL
GASTEIGER

@<TRIPOS>ATOM
      1 C         140.3427  144.8111  163.3739 C.ar    1  UNL1        0.1401
      2 C         139.5848  144.7843  164.6680 C.ar    1  UNL1        0.0370
      3 C         138.2585  144.0879  164.7462 C.ar    1  UNL1        0.0047
      4 C         137.6902  143.4184  163.5302 C.ar    1  UNL1        0.0193
      5 C         138.4481  143.4452  162.2361 C.ar    1  UNL1        0.0849
      6 N         137.8797  142.7756  161.0200 N.ar    1  UNL1       -0.2370
      7 C         138.6376  142.8024  159.7259 C.ar    1  UNL1        0.1228
      8 C         139.9639  143.4988  159.6477 C.ar    1  UNL1        0.0277
      9 C         140.5322  144.1684  160.8637 C.ar    1  UNL1        0.0067
     10 C         139.7743  144.1416  162.1579 C.ar    1  UNL1        0.0517
     11 C         142.9084  144.8171  163.7826 C.3     1  UNL1        0.2525
     12 O         141.6689  145.5075  163.2957 O.3     1  UNL1       -0.4714
     13 C         138.0693  142.1329  158.5098 C.1     1  UNL1       -0.0404
     14 C         137.5010  141.4634  157.2938 C.1     1  UNL1       -0.0567
     15 C         136.9326  140.7938  156.0778 C.ar    1  UNL1        0.0612
     16 C         135.4495  140.7803  155.8533 C.ar    1  UNL1        0.0114
     17 C         134.8812  140.1108  154.6373 C.ar    1  UNL1        0.0213
     18 C         135.7958  139.4548  153.6458 C.ar    1  UNL1        0.0989
     19 N         137.2788  139.4683  153.8703 N.ar    1  UNL1       -0.2417
     20 C         137.8473  140.1378  155.0864 C.ar    1  UNL1        0.1071
@<TRIPOS>BOND
     1    11    12    1
     2    12     1    1
     3     1     2   ar
     4     2     3   ar
     5     3     4   ar
     6     4     5   ar
     7     5     6   ar
     8     6     7   ar
     9     7    13    1
    10    13    14    3
    11    14    15    1
    12    15    16   ar
    13    16    17   ar
    14    17    18   ar
    15    18    19   ar
    16    19    20   ar
    17     7     8   ar
    18     8     9   ar
    19     9    10   ar
    20    10     1   ar
    21    10     5   ar
    22    20    15   ar
@<TRIPOS>MOLECULE
*****
 20 22 0 0 0
SMALL
GASTEIGER

@<TRIPOS>ATOM
      1 C         139.2411  143.3878  159.5736 C.ar    1  UNL1        0.1401
      2 C         140.2109  144.2447  158.8153 C.ar    1  UNL1        0.0370
      3 C         141.3849  144.8545  159.5223 C.ar    1  UNL1        0.0047
      4 C         141.5892  144.6073  160.9876 C.ar    1  UNL1        0.0193
      5 C         140.6193  143.7504  161.7459 C.ar    1  UNL1        0.0849
      6 N         140.8236  143.5032  163.2113 N.ar    1  UNL1       -0.2370
      7 C         139.8537  142.6463  163.9696 C.ar    1  UNL1        0.1228
      8 C         138.6797  142.0365  163.2626 C.ar    1  UNL1        0.0277
      9 C         138.4755  142.2836  161.7973 C.ar    1  UNL1        0.0067
     10 C         139.4453  143.1406  161.0389 C.ar    1  UNL1        0.0517
     11 C         138.2219  141.4728  158.1438 C.3     1  UNL1        0.2525
     12 O         138.0670  142.7780  158.8667 O.3     1  UNL1       -0.4714
     13 C         140.0579  142.3991  165.4350 C.1     1  UNL1       -0.0404
     14 C         140.2621  142.1519  166.9003 C.1     1  UNL1       -0.0567
     15 C         140.4663  141.9048  168.3656 C.ar    1  UNL1        0.0612
     16 C         140.1945  140.5469  168.9423 C.ar    1  UNL1        0.0114
     17 C         140.3987  140.2998  170.4076 C.ar    1  UNL1        0.0213
     18 C         140.8747  141.4105  171.2963 C.ar    1  UNL1        0.0989
     19 N         141.1465  142.7682  170.7198 N.ar    1  UNL1       -0.2417
     20 C         140.9423  143.0154  169.2544 C.ar    1  UNL1        0.1071
@<TRIPOS>BOND
     1    11    12    1
     2    12     1    1
     3     1     2   ar
     4     2     3   ar
     5     3     4   ar
     6     4     5   ar
     7     5     6   ar
     8     6     7   ar
     9     7    13    1
    10    13    14    3
    11    14    15    1
    12    15    16   ar
    13    16    17   ar
    14    17    18   ar
    15    18    19   ar
    16    19    20   ar
    17     7     8   ar
    18     8     9   ar
    19     9    10   ar
    20    10     1   ar
    21    10     5   ar
    22    20    15   ar
@<TRIPOS>MOLECULE
*****
 20 22 0 0 0
SMALL
GASTEIGER

@<TRIPOS>ATOM
      1 C         142.2867  140.6898  168.6292 C.ar    1  UNL1        0.1401
      2 C         141.5481  141.8795  169.1667 C.ar    1  UNL1        0.0370
      3 C         140.6754  142.6937  168.2581 C.ar    1  UNL1        0.0047
      4 C         140.5413  142.3182  166.8121 C.ar    1  UNL1        0.0193
      5 C         141.2799  141.1285  166.2747 C.ar    1  UNL1        0.0849
      6 N         141.1458  140.7529  164.8286 N.ar    1  UNL1       -0.2370
      7 C         141.8844  139.5632  164.2911 C.ar    1  UNL1        0.1228
      8 C         142.7571  138.7489  165.1997 C.ar    1  UNL1        0.0277
      9 C         142.8912  139.1244  166.6457 C.ar    1  UNL1        0.0067
     10 C         142.1526  140.3142  167.1832 C.ar    1  UNL1        0.0517
     11 C         142.6092  138.6513  170.2073 C.3     1  UNL1        0.2525
     12 O         143.1594  139.8755  169.5377 O.3     1  UNL1       -0.4714
     13 C         141.7503  139.1876  162.8451 C.1     1  UNL1       -0.0404
     14 C         141.6162  138.8120  161.3991 C.1     1  UNL1       -0.0567
     15 C         141.4821  138.4364  159.9531 C.ar    1  UNL1        0.0612
     16 C         140.1582  138.5758  159.2617 C.ar    1  UNL1        0.0114
     17 C         140.0241  138.2002  157.8157 C.ar    1  UNL1        0.0213
     18 C         141.2138  137.6853  157.0610 C.ar    1  UNL1        0.0989
     19 N         142.5376  137.5460  157.7524 N.ar    1  UNL1       -0.2417
     20 C         142.6718  137.9215  159.1985 C.ar    1  UNL1        0.1071
@<TRIPOS>BOND
     1    11    12    1
     2    12     1    1
     3     1     2   ar
     4     2     3   ar
     5     3     4   ar
     6     4     5   ar
     7     5     6   ar
     8     6     7   ar
     9     7    13    1
    10    13    14    3
    11    14    15    1
    12    15    16   ar
    13    16    17   ar
    14    17    18   ar
    15    18    19   ar
    16    19    20   ar
    17     7     8   ar
    18     8     9   ar
    19     9    10   ar
    20    10     1   ar
    21    10     5   ar
    22    20    15   ar
@<TRIPOS>MOLECULE
*****
 20 22 0 0 0
SMALL
GASTEIGER

@<TRIPOS>ATOM
      1 C         140.6034  143.4951  164.6286 C.ar    1  UNL1        0.1401
      2 C         139.3161  143.4844  165.3984 C.ar    1  UNL1        0.0370
      3 C         138.0440  143.9279  164.7387 C.ar    1  UNL1        0.0047
      4 C         138.0592  144.3820  163.3093 C.ar    1  UNL1        0.0193
      5 C         139.3465  144.3927  162.5394 C.ar    1  UNL1        0.0849
      6 N         139.3618  144.8469  161.1099 N.ar    1  UNL1       -0.2370
      7 C         140.6491  144.8575  160.3400 C.ar    1  UNL1        0.1228
      8 C         141.9212  144.4141  160.9997 C.ar    1  UNL1        0.0277
      9 C         141.9060  143.9600  162.4292 C.ar    1  UNL1        0.0067
     10 C         140.6186  143.9492  163.1991 C.ar    1  UNL1        0.0517
     11 C         142.2300  141.5948  165.3306 C.3     1  UNL1        0.2525
     12 O         141.8755  143.0517  165.2882 O.3     1  UNL1       -0.4714
     13 C         140.6643  145.3117  158.9105 C.1     1  UNL1       -0.0404
     14 C         140.6796  145.7658  157.4810 C.1     1  UNL1       -0.0567
     15 C         140.6949  146.2199  156.0515 C.ar    1  UNL1        0.0612
     16 C         139.8517  147.3852  155.6256 C.ar    1  UNL1        0.0114
     17 C         139.8670  147.8392  154.1961 C.ar    1  UNL1        0.0213
     18 C         140.7254  147.1281  153.1924 C.ar    1  UNL1        0.0989
     19 N         141.5685  145.9629  153.6182 N.ar    1  UNL1       -0.2417
     20 C         141.5533  145.5087  155.0477 C.ar    1  UNL1        0.1071
@<TRIPOS>BOND
     1    11    12    1
     2    12     1    1
     3     1     2   ar
     4     2     3   ar
     5     3     4   ar
     6     4     5   ar
     7     5     6   ar
     8     6     7   ar
     9     7    13    1
    10    13    14    3
    11    14    15    1
    12    15    16   ar
    13    16    17   ar
    14    17    18   ar
    15    18    19   ar
    16    19    20   ar
    17     7     8   ar
    18     8     9   ar
    19     9    10   ar
    20    10     1   ar
    21    10     5   ar
    22    20    15   ar
