@<TRIPOS>MOLECULE
*****
 29 32 0 0 0
SMALL
GASTEIGER

@<TRIPOS>ATOM
      1 C         142.6326  141.0994  166.3465 C.3     1  UNL1        0.1007
      2 C         141.5094  140.9418  167.3281 C.ar    1  UNL1        0.0103
      3 C         141.5328  141.6994  168.6225 C.ar    1  UNL1        0.0044
      4 C         140.4096  141.5418  169.6042 C.ar    1  UNL1        0.0702
      5 C         139.2631  140.6266  169.2915 C.ar    1  UNL1        0.2658
      6 O         138.1399  140.4690  170.2731 O.2     1  UNL1       -0.2666
      7 N         139.2397  139.8690  167.9970 N.ar    1  UNL1       -0.2734
      8 C         138.0932  138.9538  167.6843 C.ar    1  UNL1        0.0829
      9 C         138.0698  138.1962  166.3899 C.ar    1  UNL1        0.0191
     10 C         139.1929  138.3538  165.4083 C.ar    1  UNL1        0.0030
     11 C         140.3395  139.2690  165.7210 C.ar    1  UNL1        0.0174
     12 C         140.3628  140.0266  167.0154 C.ar    1  UNL1        0.0642
     13 C         140.4331  142.2995  170.8986 C.2     1  UNL1        0.0775
     14 O         141.5596  142.0942  171.8675 O.co2   1  UNL1       -0.5444
     15 O         139.3300  143.2624  171.2241 O.co2   1  UNL1       -0.5444
     16 N         141.9031  143.1364  162.4007 N.pl3   1  UNL1       -0.3046
     17 C         142.7504  141.9000  162.4612 C.3     1  UNL1        0.1081
     18 C         142.9935  141.2211  163.7764 C.3     1  UNL1        0.0941
     19 N         142.3894  141.7784  165.0313 N.3     1  UNL1       -0.2659
     20 C         141.5421  143.0147  164.9708 C.3     1  UNL1        0.0941
     21 C         141.2990  143.6937  163.6555 C.3     1  UNL1        0.1081
     22 C         141.1737  145.1733  158.4550 C.ar    1  UNL1        0.0685
     23 C         140.3410  145.5327  159.6498 C.ar    1  UNL1        0.0115
     24 C         140.5842  144.8537  160.9651 C.ar    1  UNL1        0.0152
     25 C         141.6600  143.8153  161.0855 C.ar    1  UNL1        0.0480
     26 C         142.4926  143.4559  159.8907 C.ar    1  UNL1        0.0152
     27 C         142.2494  144.1349  158.5755 C.ar    1  UNL1        0.0115
     28 N         140.6873  146.5313  155.8245 N.1     1  UNL1       -0.1908
     29 C         140.9305  145.8523  157.1398 C.1     1  UNL1        0.1004
@<TRIPOS>UNITY_ATOM_ATTR
14 1
charge -1
@<TRIPOS>BOND
     1    28    29    3
     2    29    22    1
     3    22    23   ar
     4    23    24   ar
     5    24    25   ar
     6    25    16    1
     7    16    17    1
     8    17    18    1
     9    18    19    1
    10    19     1    1
    11     1     2    1
    12     2     3   ar
    13     3     4   ar
    14     4    13    1
    15    13    14   ar
    16    13    15   ar
    17     4     5   ar
    18     5     6    2
    19     5     7   ar
    20     7     8   ar
    21     8     9   ar
    22     9    10   ar
    23    10    11   ar
    24    11    12   ar
    25    19    20    1
    26    20    21    1
    27    25    26   ar
    28    26    27   ar
    29    27    22   ar
    30    21    16    1
    31    12     2   ar
    32    12     7   ar
@<TRIPOS>MOLECULE
*****
 29 32 0 0 0
SMALL
GASTEIGER

@<TRIPOS>ATOM
      1 C         138.5401  139.4344  164.8318 C.3     1  UNL1        0.1007
      2 C         139.3841  139.5435  166.0670 C.ar    1  UNL1        0.0103
      3 C         138.7636  139.9709  167.3640 C.ar    1  UNL1        0.0044
      4 C         139.6076  140.0801  168.5992 C.ar    1  UNL1        0.0702
      5 C         141.0721  139.7618  168.5374 C.ar    1  UNL1        0.2658
      6 O         141.9162  139.8709  169.7726 O.2     1  UNL1       -0.2666
      7 N         141.6927  139.3344  167.2404 N.ar    1  UNL1       -0.2734
      8 C         143.1573  139.0162  167.1786 C.ar    1  UNL1        0.0829
      9 C         143.7778  138.5888  165.8816 C.ar    1  UNL1        0.0191
     10 C         142.9338  138.4797  164.6463 C.ar    1  UNL1        0.0030
     11 C         141.4692  138.7979  164.7081 C.ar    1  UNL1        0.0174
     12 C         140.8487  139.2253  166.0051 C.ar    1  UNL1        0.0642
     13 C         138.9870  140.5075  169.8963 C.2     1  UNL1        0.0775
     14 O         138.0560  139.5827  170.6229 O.co2   1  UNL1       -0.5444
     15 O         139.2975  141.8596  170.4666 O.co2   1  UNL1       -0.5444
     16 N         139.2867  142.1815  161.3466 N.pl3   1  UNL1       -0.3046
     17 C         139.2535  142.7318  162.7417 C.3     1  UNL1        0.1081
     18 C         139.0047  141.8161  163.9034 C.3     1  UNL1        0.0941
     19 N         138.7890  140.3501  163.6701 N.3     1  UNL1       -0.2659
     20 C         138.8221  139.7998  162.2750 C.3     1  UNL1        0.0941
     21 C         139.0710  140.7156  161.1133 C.3     1  UNL1        0.1081
     22 C         140.0332  144.9286  157.8615 C.ar    1  UNL1        0.0685
     23 C         139.3854  143.5941  157.6392 C.ar    1  UNL1        0.0115
     24 C         139.1366  142.6783  158.8009 C.ar    1  UNL1        0.0152
     25 C         139.5355  143.0972  160.1849 C.ar    1  UNL1        0.0480
     26 C         140.1833  144.4317  160.4072 C.ar    1  UNL1        0.0152
     27 C         140.4321  145.3474  159.2455 C.ar    1  UNL1        0.0115
     28 N         140.5309  146.7600  155.5381 N.1     1  UNL1       -0.1908
     29 C         140.2820  145.8442  156.6998 C.1     1  UNL1        0.1004
@<TRIPOS>UNITY_ATOM_ATTR
14 1
charge -1
@<TRIPOS>BOND
     1    28    29    3
     2    29    22    1
     3    22    23   ar
     4    23    24   ar
     5    24    25   ar
     6    25    16    1
     7    16    17    1
     8    17    18    1
     9    18    19    1
    10    19     1    1
    11     1     2    1
    12     2     3   ar
    13     3     4   ar
    14     4    13    1
    15    13    14   ar
    16    13    15   ar
    17     4     5   ar
    18     5     6    2
    19     5     7   ar
    20     7     8   ar
    21     8     9   ar
    22     9    10   ar
    23    10    11   ar
    24    11    12   ar
    25    19    20    1
    26    20    21    1
    27    25    26   ar
    28    26    27   ar
    29    27    22   ar
    30    21    16    1
    31    12     2   ar
    32    12     7   ar
@<TRIPOS>MOLECULE
*****
 29 32 0 0 0
SMALL
GASTEIGER

@<TRIPOS>ATOM
      1 C         142.9774  141.3301  165.7953 C.3     1  UNL1        0.1007
      2 C         141.8603  140.9759  166.7316 C.ar    1  UNL1        0.0103
      3 C         140.6698  140.2166  166.2255 C.ar    1  UNL1        0.0044
      4 C         139.5527  139.8624  167.1618 C.ar    1  UNL1        0.0702
      5 C         139.6262  140.2674  168.6042 C.ar    1  UNL1        0.2658
      6 O         138.5091  139.9132  169.5405 O.2     1  UNL1       -0.2666
      7 N         140.8167  141.0268  169.1103 N.ar    1  UNL1       -0.2734
      8 C         140.8901  141.4318  170.5527 C.ar    1  UNL1        0.0829
      9 C         142.0806  142.1911  171.0587 C.ar    1  UNL1        0.0191
     10 C         143.1977  142.5454  170.1224 C.ar    1  UNL1        0.0030
     11 C         143.1242  142.1403  168.6801 C.ar    1  UNL1        0.0174
     12 C         141.9338  141.3810  168.1740 C.ar    1  UNL1        0.0642
     13 C         138.3622  139.1030  166.6556 C.2     1  UNL1        0.0775
     14 O         137.6235  138.1706  167.5694 O.co2   1  UNL1       -0.5444
     15 O         137.9104  139.2761  165.2358 O.co2   1  UNL1       -0.5444
     16 N         142.0723  143.3328  161.8684 N.pl3   1  UNL1       -0.3046
     17 C         142.8275  142.0370  161.8930 C.3     1  UNL1        0.1081
     18 C         143.1292  141.3694  163.2019 C.3     1  UNL1        0.0941
     19 N         142.6757  141.9977  164.4863 N.3     1  UNL1       -0.2659
     20 C         141.9205  143.2935  164.4618 C.3     1  UNL1        0.0941
     21 C         141.6188  143.9610  163.1527 C.3     1  UNL1        0.1081
     22 C         141.1673  145.3354  157.9415 C.ar    1  UNL1        0.0685
     23 C         140.3388  145.6492  159.1519 C.ar    1  UNL1        0.0115
     24 C         140.6405  144.9817  160.4610 C.ar    1  UNL1        0.0152
     25 C         141.7706  144.0003  160.5595 C.ar    1  UNL1        0.0480
     26 C         142.5991  143.6865  159.3490 C.ar    1  UNL1        0.0152
     27 C         142.2974  144.3540  158.0400 C.ar    1  UNL1        0.0115
     28 N         140.5638  146.6704  155.3236 N.1     1  UNL1       -0.1908
     29 C         140.8656  146.0029  156.6326 C.1     1  UNL1        0.1004
@<TRIPOS>UNITY_ATOM_ATTR
14 1
charge -1
@<TRIPOS>BOND
     1    28    29    3
     2    29    22    1
     3    22    23   ar
     4    23    24   ar
     5    24    25   ar
     6    25    16    1
     7    16    17    1
     8    17    18    1
     9    18    19    1
    10    19     1    1
    11     1     2    1
    12     2     3   ar
    13     3     4   ar
    14     4    13    1
    15    13    14   ar
    16    13    15   ar
    17     4     5   ar
    18     5     6    2
    19     5     7   ar
    20     7     8   ar
    21     8     9   ar
    22     9    10   ar
    23    10    11   ar
    24    11    12   ar
    25    19    20    1
    26    20    21    1
    27    25    26   ar
    28    26    27   ar
    29    27    22   ar
    30    21    16    1
    31    12     2   ar
    32    12     7   ar
@<TRIPOS>MOLECULE
*****
 29 32 0 0 0
SMALL
GASTEIGER

@<TRIPOS>ATOM
      1 C         142.5851  138.0748  157.1445 C.3     1  UNL1        0.1007
      2 C         142.6338  136.7756  156.3965 C.ar    1  UNL1        0.0103
      3 C         143.0444  135.5180  157.1036 C.ar    1  UNL1        0.0044
      4 C         143.0932  134.2188  156.3557 C.ar    1  UNL1        0.0702
      5 C         142.7313  134.1770  154.9006 C.ar    1  UNL1        0.2658
      6 O         142.7801  132.8777  154.1526 O.2     1  UNL1       -0.2666
      7 N         142.3207  135.4345  154.1934 N.ar    1  UNL1       -0.2734
      8 C         141.9589  135.3928  152.7383 C.ar    1  UNL1        0.0829
      9 C         141.5483  136.6503  152.0313 C.ar    1  UNL1        0.0191
     10 C         141.4995  137.9496  152.7792 C.ar    1  UNL1        0.0030
     11 C         141.8614  137.9913  154.2343 C.ar    1  UNL1        0.0174
     12 C         142.2720  136.7338  154.9414 C.ar    1  UNL1        0.0642
     13 C         143.5038  132.9612  157.0628 C.2     1  UNL1        0.0775
     14 O         144.8359  132.8871  157.7483 O.co2   1  UNL1       -0.5444
     15 O         142.5823  131.7779  157.0845 O.co2   1  UNL1       -0.5444
     16 N         140.6457  138.2646  161.2007 N.pl3   1  UNL1       -0.3046
     17 C         142.1128  137.9751  161.0837 C.3     1  UNL1        0.1081
     18 C         142.7593  137.9118  159.7317 C.3     1  UNL1        0.0941
     19 N         141.9386  138.1381  158.4966 N.3     1  UNL1       -0.2659
     20 C         140.4715  138.4276  158.6136 C.3     1  UNL1        0.0941
     21 C         139.8250  138.4909  159.9657 C.3     1  UNL1        0.1081
     22 C         138.7062  138.4544  165.2569 C.ar    1  UNL1        0.0685
     23 C         139.7342  137.4016  164.9656 C.ar    1  UNL1        0.0115
     24 C         140.3807  137.3383  163.6135 C.ar    1  UNL1        0.0152
     25 C         139.9992  138.3279  162.5527 C.ar    1  UNL1        0.0480
     26 C         138.9712  139.3807  162.8440 C.ar    1  UNL1        0.0152
     27 C         138.3247  139.4440  164.1961 C.ar    1  UNL1        0.0115
     28 N         137.4133  138.5809  167.9610 N.1     1  UNL1       -0.1908
     29 C         138.0597  138.5177  166.6089 C.1     1  UNL1        0.1004
@<TRIPOS>UNITY_ATOM_ATTR
14 1
charge -1
@<TRIPOS>BOND
     1    28    29    3
     2    29    22    1
     3    22    23   ar
     4    23    24   ar
     5    24    25   ar
     6    25    16    1
     7    16    17    1
     8    17    18    1
     9    18    19    1
    10    19     1    1
    11     1     2    1
    12     2     3   ar
    13     3     4   ar
    14     4    13    1
    15    13    14   ar
    16    13    15   ar
    17     4     5   ar
    18     5     6    2
    19     5     7   ar
    20     7     8   ar
    21     8     9   ar
    22     9    10   ar
    23    10    11   ar
    24    11    12   ar
    25    19    20    1
    26    20    21    1
    27    25    26   ar
    28    26    27   ar
    29    27    22   ar
    30    21    16    1
    31    12     2   ar
    32    12     7   ar
@<TRIPOS>MOLECULE
*****
 29 32 0 0 0
SMALL
GASTEIGER

@<TRIPOS>ATOM
      1 C         140.2000  143.2498  165.8352 C.3     1  UNL1        0.1007
      2 C         140.8981  142.1292  166.5471 C.ar    1  UNL1        0.0103
      3 C         141.5397  141.0251  165.7603 C.ar    1  UNL1        0.0044
      4 C         142.2378  139.9045  166.4723 C.ar    1  UNL1        0.0702
      5 C         142.2943  139.8880  167.9711 C.ar    1  UNL1        0.2658
      6 O         142.9924  138.7674  168.6831 O.2     1  UNL1       -0.2666
      7 N         141.6526  140.9921  168.7580 N.ar    1  UNL1       -0.2734
      8 C         141.7090  140.9756  170.2568 C.ar    1  UNL1        0.0829
      9 C         141.0673  142.0798  171.0437 C.ar    1  UNL1        0.0191
     10 C         140.3693  143.2004  170.3317 C.ar    1  UNL1        0.0030
     11 C         140.3128  143.2169  168.8329 C.ar    1  UNL1        0.0174
     12 C         140.9545  142.1127  168.0460 C.ar    1  UNL1        0.0642
     13 C         142.8795  138.8003  165.6853 C.2     1  UNL1        0.0775
     14 O         144.3702  138.7639  165.5224 O.co2   1  UNL1       -0.5444
     15 O         142.0305  137.7327  165.0614 O.co2   1  UNL1       -0.5444
     16 N         141.0782  144.0512  161.4951 N.pl3   1  UNL1       -0.3046
     17 C         142.0030  144.5705  162.5557 C.3     1  UNL1        0.1081
     18 C         141.7103  144.3034  164.0024 C.3     1  UNL1        0.0941
     19 N         140.4927  143.5169  164.3885 N.3     1  UNL1       -0.2659
     20 C         139.5679  142.9976  163.3278 C.3     1  UNL1        0.0941
     21 C         139.8606  143.2648  161.8811 C.3     1  UNL1        0.1081
     22 C         141.9563  144.8526  157.1549 C.ar    1  UNL1        0.0685
     23 C         140.8466  145.5897  157.8441 C.ar    1  UNL1        0.0115
     24 C         140.5538  145.3226  159.2909 C.ar    1  UNL1        0.0152
     25 C         141.3709  144.3183  160.0484 C.ar    1  UNL1        0.0480
     26 C         142.4807  143.5812  159.3592 C.ar    1  UNL1        0.0152
     27 C         142.7734  143.8483  157.9125 C.ar    1  UNL1        0.0115
     28 N         142.5417  145.3868  154.2615 N.1     1  UNL1       -0.1908
     29 C         142.2490  145.1197  155.7083 C.1     1  UNL1        0.1004
@<TRIPOS>UNITY_ATOM_ATTR
14 1
charge -1
@<TRIPOS>BOND
     1    28    29    3
     2    29    22    1
     3    22    23   ar
     4    23    24   ar
     5    24    25   ar
     6    25    16    1
     7    16    17    1
     8    17    18    1
     9    18    19    1
    10    19     1    1
    11     1     2    1
    12     2     3   ar
    13     3     4   ar
    14     4    13    1
    15    13    14   ar
    16    13    15   ar
    17     4     5   ar
    18     5     6    2
    19     5     7   ar
    20     7     8   ar
    21     8     9   ar
    22     9    10   ar
    23    10    11   ar
    24    11    12   ar
    25    19    20    1
    26    20    21    1
    27    25    26   ar
    28    26    27   ar
    29    27    22   ar
    30    21    16    1
    31    12     2   ar
    32    12     7   ar
@<TRIPOS>MOLECULE
*****
 29 32 0 0 0
SMALL
GASTEIGER

@<TRIPOS>ATOM
      1 C         138.0463  139.4710  160.5120 C.3     1  UNL1        0.1007
      2 C         139.1029  139.5169  159.4483 C.ar    1  UNL1        0.0103
      3 C         140.4150  138.8229  159.6640 C.ar    1  UNL1        0.0044
      4 C         141.4717  138.8689  158.6003 C.ar    1  UNL1        0.0702
      5 C         141.2161  139.6089  157.3209 C.ar    1  UNL1        0.2658
      6 O         142.2727  139.6548  156.2572 O.2     1  UNL1       -0.2666
      7 N         139.9039  140.3029  157.1050 N.ar    1  UNL1       -0.2734
      8 C         139.6484  141.0429  155.8256 C.ar    1  UNL1        0.0829
      9 C         138.3363  141.7369  155.6098 C.ar    1  UNL1        0.0191
     10 C         137.2797  141.6910  156.6735 C.ar    1  UNL1        0.0030
     11 C         137.5352  140.9510  157.9530 C.ar    1  UNL1        0.0174
     12 C         138.8473  140.2570  158.1688 C.ar    1  UNL1        0.0642
     13 C         142.7838  138.1748  158.8161 C.2     1  UNL1        0.0775
     14 O         143.0822  136.8937  158.0951 O.co2   1  UNL1       -0.5444
     15 O         143.7976  138.7618  159.7529 O.co2   1  UNL1       -0.5444
     16 N         139.1043  140.4380  164.7776 N.pl3   1  UNL1       -0.3046
     17 C         138.8593  139.0155  164.3697 C.3     1  UNL1        0.1081
     18 C         138.5066  138.6931  162.9478 C.3     1  UNL1        0.0941
     19 N         138.3990  139.7933  161.9338 N.3     1  UNL1       -0.2659
     20 C         138.6440  141.2158  162.3418 C.3     1  UNL1        0.0941
     21 C         138.9967  141.5382  163.7637 C.3     1  UNL1        0.1081
     22 C         140.1623  141.4050  169.0432 C.ar    1  UNL1        0.0685
     23 C         140.4874  142.3797  167.9505 C.ar    1  UNL1        0.0115
     24 C         140.1348  142.0574  166.5285 C.ar    1  UNL1        0.0152
     25 C         139.4569  140.7603  166.1995 C.ar    1  UNL1        0.0480
     26 C         139.1318  139.7856  167.2923 C.ar    1  UNL1        0.0152
     27 C         139.4844  140.1080  168.7142 C.ar    1  UNL1        0.0115
     28 N         140.8676  142.0497  171.8870 N.1     1  UNL1       -0.1908
     29 C         140.5149  141.7273  170.4651 C.1     1  UNL1        0.1004
@<TRIPOS>UNITY_ATOM_ATTR
14 1
charge -1
@<TRIPOS>BOND
     1    28    29    3
     2    29    22    1
     3    22    23   ar
     4    23    24   ar
     5    24    25   ar
     6    25    16    1
     7    16    17    1
     8    17    18    1
     9    18    19    1
    10    19     1    1
    11     1     2    1
    12     2     3   ar
    13     3     4   ar
    14     4    13    1
    15    13    14   ar
    16    13    15   ar
    17     4     5   ar
    18     5     6    2
    19     5     7   ar
    20     7     8   ar
    21     8     9   ar
    22     9    10   ar
    23    10    11   ar
    24    11    12   ar
    25    19    20    1
    26    20    21    1
    27    25    26   ar
    28    26    27   ar
    29    27    22   ar
    30    21    16    1
    31    12     2   ar
    32    12     7   ar
@<TRIPOS>MOLECULE
*****
 29 32 0 0 0
SMALL
GASTEIGER

@<TRIPOS>ATOM
      1 C         144.5995  142.6112  160.6685 C.3     1  UNL1        0.1007
      2 C         143.6816  142.9598  159.5345 C.ar    1  UNL1        0.0103
      3 C         142.2954  143.4582  159.8176 C.ar    1  UNL1        0.0044
      4 C         141.3775  143.8068  158.6836 C.ar    1  UNL1        0.0702
      5 C         141.8458  143.6570  157.2665 C.ar    1  UNL1        0.2658
      6 O         140.9279  144.0056  156.1325 O.2     1  UNL1       -0.2666
      7 N         143.2320  143.1586  156.9833 N.ar    1  UNL1       -0.2734
      8 C         143.7002  143.0088  155.5662 C.ar    1  UNL1        0.0829
      9 C         145.0864  142.5104  155.2831 C.ar    1  UNL1        0.0191
     10 C         146.0042  142.1618  156.4171 C.ar    1  UNL1        0.0030
     11 C         145.5360  142.3116  157.8342 C.ar    1  UNL1        0.0174
     12 C         144.1499  142.8100  158.1173 C.ar    1  UNL1        0.0642
     13 C         139.9913  144.3052  158.9668 C.2     1  UNL1        0.0775
     14 O         138.8386  143.3456  158.9855 O.co2   1  UNL1       -0.5444
     15 O         139.7579  145.7631  159.2311 O.co2   1  UNL1       -0.5444
     16 N         143.0246  142.4900  164.8822 N.pl3   1  UNL1       -0.3046
     17 C         143.6543  143.7442  164.3526 C.3     1  UNL1        0.1081
     18 C         144.1793  143.7847  162.9481 C.3     1  UNL1        0.0941
     19 N         144.0745  142.5708  162.0730 N.3     1  UNL1       -0.2659
     20 C         143.4448  141.3166  162.6025 C.3     1  UNL1        0.0941
     21 C         142.9199  141.2762  164.0072 C.3     1  UNL1        0.1081
     22 C         141.4499  142.3687  169.0959 C.ar    1  UNL1        0.0685
     23 C         140.4994  142.5074  167.9437 C.ar    1  UNL1        0.0115
     24 C         141.0244  142.5478  166.5391 C.ar    1  UNL1        0.0152
     25 C         142.4997  142.4496  166.2867 C.ar    1  UNL1        0.0480
     26 C         143.4501  142.3109  167.4389 C.ar    1  UNL1        0.0152
     27 C         142.9252  142.2705  168.8434 C.ar    1  UNL1        0.0115
     28 N         140.3999  142.2879  171.9050 N.1     1  UNL1       -0.1908
     29 C         140.9249  142.3283  170.5004 C.1     1  UNL1        0.1004
@<TRIPOS>UNITY_ATOM_ATTR
14 1
charge -1
@<TRIPOS>BOND
     1    28    29    3
     2    29    22    1
     3    22    23   ar
     4    23    24   ar
     5    24    25   ar
     6    25    16    1
     7    16    17    1
     8    17    18    1
     9    18    19    1
    10    19     1    1
    11     1     2    1
    12     2     3   ar
    13     3     4   ar
    14     4    13    1
    15    13    14   ar
    16    13    15   ar
    17     4     5   ar
    18     5     6    2
    19     5     7   ar
    20     7     8   ar
    21     8     9   ar
    22     9    10   ar
    23    10    11   ar
    24    11    12   ar
    25    19    20    1
    26    20    21    1
    27    25    26   ar
    28    26    27   ar
    29    27    22   ar
    30    21    16    1
    31    12     2   ar
    32    12     7   ar
@<TRIPOS>MOLECULE
*****
 29 32 0 0 0
SMALL
GASTEIGER

@<TRIPOS>ATOM
      1 C         139.5044  142.6997  165.9332 C.3     1  UNL1        0.1007
      2 C         140.4829  142.0900  166.8927 C.ar    1  UNL1        0.0103
      3 C         140.7154  142.7251  168.2316 C.ar    1  UNL1        0.0044
      4 C         141.6938  142.1154  169.1912 C.ar    1  UNL1        0.0702
      5 C         142.4398  140.8706  168.8119 C.ar    1  UNL1        0.2658
      6 O         143.4183  140.2608  169.7715 O.2     1  UNL1       -0.2666
      7 N         142.2073  140.2354  167.4730 N.ar    1  UNL1       -0.2734
      8 C         142.9533  138.9906  167.0938 C.ar    1  UNL1        0.0829
      9 C         142.7208  138.3555  165.7549 C.ar    1  UNL1        0.0191
     10 C         141.7423  138.9652  164.7953 C.ar    1  UNL1        0.0030
     11 C         140.9964  140.2100  165.1746 C.ar    1  UNL1        0.0174
     12 C         141.2289  140.8451  166.5134 C.ar    1  UNL1        0.0642
     13 C         141.9263  142.7505  170.5301 C.2     1  UNL1        0.0775
     14 O         143.0067  143.7779  170.6954 O.co2   1  UNL1       -0.5444
     15 O         141.0784  142.3584  171.7036 O.co2   1  UNL1       -0.5444
     16 N         140.7671  143.6199  161.7131 N.pl3   1  UNL1       -0.3046
     17 C         141.6127  144.0754  162.8652 C.3     1  UNL1        0.1081
     18 C         141.1918  143.7687  164.2719 C.3     1  UNL1        0.0941
     19 N         139.9253  143.0064  164.5265 N.3     1  UNL1       -0.2659
     20 C         139.0796  142.5509  163.3744 C.3     1  UNL1        0.0941
     21 C         139.5005  142.8576  161.9677 C.3     1  UNL1        0.1081
     22 C         142.0297  144.5400  157.4930 C.ar    1  UNL1        0.0685
     23 C         142.8975  143.6822  158.3653 C.ar    1  UNL1        0.0115
     24 C         142.4766  143.3754  159.7721 C.ar    1  UNL1        0.0152
     25 C         141.1879  143.9266  160.3064 C.ar    1  UNL1        0.0480
     26 C         140.3201  144.7845  159.4340 C.ar    1  UNL1        0.0152
     27 C         140.7410  145.0912  158.0274 C.ar    1  UNL1        0.0115
     28 N         142.8715  145.1535  154.6796 N.1     1  UNL1       -0.1908
     29 C         142.4506  144.8467  156.0864 C.1     1  UNL1        0.1004
@<TRIPOS>UNITY_ATOM_ATTR
14 1
charge -1
@<TRIPOS>BOND
     1    28    29    3
     2    29    22    1
     3    22    23   ar
     4    23    24   ar
     5    24    25   ar
     6    25    16    1
     7    16    17    1
     8    17    18    1
     9    18    19    1
    10    19     1    1
    11     1     2    1
    12     2     3   ar
    13     3     4   ar
    14     4    13    1
    15    13    14   ar
    16    13    15   ar
    17     4     5   ar
    18     5     6    2
    19     5     7   ar
    20     7     8   ar
    21     8     9   ar
    22     9    10   ar
    23    10    11   ar
    24    11    12   ar
    25    19    20    1
    26    20    21    1
    27    25    26   ar
    28    26    27   ar
    29    27    22   ar
    30    21    16    1
    31    12     2   ar
    32    12     7   ar
@<TRIPOS>MOLECULE
*****
 29 32 0 0 0
SMALL
GASTEIGER

@<TRIPOS>ATOM
      1 C         143.1199  141.1114  165.8730 C.3     1  UNL1        0.1007
      2 C         141.9473  140.8126  166.7593 C.ar    1  UNL1        0.0103
      3 C         140.7532  140.0929  166.2061 C.ar    1  UNL1        0.0044
      4 C         139.5805  139.7940  167.0924 C.ar    1  UNL1        0.0702
      5 C         139.6019  140.2150  168.5319 C.ar    1  UNL1        0.2658
      6 O         138.4292  139.9162  169.4183 O.2     1  UNL1       -0.2666
      7 N         140.7960  140.9348  169.0852 N.ar    1  UNL1       -0.2734
      8 C         140.8174  141.3557  170.5248 C.ar    1  UNL1        0.0829
      9 C         142.0115  142.0755  171.0780 C.ar    1  UNL1        0.0191
     10 C         143.1842  142.3743  170.1917 C.ar    1  UNL1        0.0030
     11 C         143.1628  141.9534  168.7521 C.ar    1  UNL1        0.0174
     12 C         141.9687  141.2336  168.1989 C.ar    1  UNL1        0.0642
     13 C         138.3864  139.0743  166.5391 C.2     1  UNL1        0.0775
     14 O         137.8444  139.4467  165.1910 O.co2   1  UNL1       -0.5444
     15 O         137.7343  137.9821  167.3340 O.co2   1  UNL1       -0.5444
     16 N         143.0628  139.8335  161.5586 N.pl3   1  UNL1       -0.3046
     17 C         143.6412  138.9247  162.6024 C.3     1  UNL1        0.1081
     18 C         143.6603  139.3507  164.0405 C.3     1  UNL1        0.0941
     19 N         143.1009  140.6855  164.4349 N.3     1  UNL1       -0.2659
     20 C         142.5224  141.5943  163.3911 C.3     1  UNL1        0.0941
     21 C         142.5034  141.1683  161.9529 C.3     1  UNL1        0.1081
     22 C         143.0056  138.5556  157.2443 C.ar    1  UNL1        0.0685
     23 C         143.4048  139.9554  157.6066 C.ar    1  UNL1        0.0115
     24 C         143.4239  140.3814  159.0448 C.ar    1  UNL1        0.0152
     25 C         143.0438  139.4076  160.1205 C.ar    1  UNL1        0.0480
     26 C         142.6445  138.0078  159.7581 C.ar    1  UNL1        0.0152
     27 C         142.6255  137.5818  158.3200 C.ar    1  UNL1        0.0115
     28 N         142.9676  137.7037  154.3680 N.1     1  UNL1       -0.1908
     29 C         142.9866  138.1297  155.8062 C.1     1  UNL1        0.1004
@<TRIPOS>UNITY_ATOM_ATTR
14 1
charge -1
@<TRIPOS>BOND
     1    28    29    3
     2    29    22    1
     3    22    23   ar
     4    23    24   ar
     5    24    25   ar
     6    25    16    1
     7    16    17    1
     8    17    18    1
     9    18    19    1
    10    19     1    1
    11     1     2    1
    12     2     3   ar
    13     3     4   ar
    14     4    13    1
    15    13    14   ar
    16    13    15   ar
    17     4     5   ar
    18     5     6    2
    19     5     7   ar
    20     7     8   ar
    21     8     9   ar
    22     9    10   ar
    23    10    11   ar
    24    11    12   ar
    25    19    20    1
    26    20    21    1
    27    25    26   ar
    28    26    27   ar
    29    27    22   ar
    30    21    16    1
    31    12     2   ar
    32    12     7   ar
