@<TRIPOS>MOLECULE
*****
 35 39 0 0 0
SMALL
GASTEIGER

@<TRIPOS>ATOM
      1 C         137.6539  143.8259  164.6744 C.3     1  UNL1        0.0308
      2 C         138.6965  143.6231  164.4148 C.ar    1  UNL1       -0.0237
      3 C         139.4755  144.8666  164.1036 C.ar    1  UNL1        0.0069
      4 C         140.9243  144.7696  163.7274 C.ar    1  UNL1        0.0573
      5 CL        141.7033  146.0130  163.4162 Cl      1  UNL1       -0.0823
      6 C         141.5941  143.4289  163.6623 C.ar    1  UNL1        0.0111
      7 C         140.8151  142.1855  163.9735 C.ar    1  UNL1       -0.0015
      8 C         139.3663  142.2825  164.3497 C.ar    1  UNL1       -0.0100
      9 C         141.4849  140.8448  163.9084 C.ar    1  UNL1        0.0087
     10 C         141.6508  140.1526  162.5881 C.ar    1  UNL1        0.0212
     11 C         142.3205  138.8120  162.5231 C.ar    1  UNL1        0.0989
     12 N         142.8243  138.1637  163.7784 N.ar    1  UNL1       -0.2433
     13 C         142.6584  138.8559  165.0987 C.ar    1  UNL1        0.0875
     14 C         143.0510  138.4658  166.4928 C.ar    1  UNL1        0.0235
     15 C         142.6238  139.5652  167.4195 C.ar    1  UNL1        0.0292
     16 S         141.9673  140.6349  166.5981 S.2     1  UNL1       -0.0880
     17 C         141.9887  140.1965  165.1637 C.ar    1  UNL1        0.0468
     18 C         142.8189  139.5905  168.9066 C.3     1  UNL1        0.1339
     19 N         142.2434  140.7121  169.7196 N.am    1  UNL1       -0.2250
     20 C         140.9696  140.6645  170.5102 C.2     1  UNL1        0.2321
     21 O         140.0477  139.4871  170.6267 O.2     1  UNL1       -0.2744
     22 C         140.7797  142.0012  171.1639 C.3     1  UNL1        0.0953
     23 C         141.9361  142.8748  170.7773 C.3     1  UNL1        0.0953
     24 C         142.8407  142.0781  169.8847 C.2     1  UNL1        0.2321
     25 O         144.1184  142.5624  169.2657 O.2     1  UNL1       -0.2744
     26 C         138.5873  141.0390  164.6609 C.3     1  UNL1        0.0988
     27 N         138.4250  139.9746  163.6165 N.3     1  UNL1       -0.2689
     28 C         138.0035  140.3465  162.2258 C.3     1  UNL1        0.0736
     29 C         137.7859  141.3502  161.8503 C.3     1  UNL1        0.0188
     30 C         137.8412  139.2822  161.1814 C.3     1  UNL1        0.0847
     31 N         138.1005  137.8458  161.5277 N.3     1  UNL1       -0.2952
     32 C         138.5221  137.4740  162.9184 C.3     1  UNL1        0.0847
     33 C         138.6843  138.5384  163.9628 C.3     1  UNL1        0.0736
     34 C         139.1058  138.1665  165.3534 C.3     1  UNL1        0.0188
     35 H         138.8355  137.5197  160.9001 H       1  UNL1        0.1233
@<TRIPOS>BOND
     1     1     2    1
     2     2     3   ar
     3     3     4   ar
     4     4     5    1
     5     4     6   ar
     6     6     7   ar
     7     7     9    1
     8     9    10   ar
     9    10    11   ar
    10    11    12   ar
    11    12    13   ar
    12    13    14   ar
    13    14    15   ar
    14    15    18    1
    15    18    19    1
    16    19    20   am
    17    20    21    2
    18    20    22    1
    19    22    23    1
    20    23    24    1
    21    24    25    2
    22    15    16   ar
    23    16    17   ar
    24     7     8   ar
    25     8    26    1
    26    26    27    1
    27    27    28    1
    28    28    29    1
    29    28    30    1
    30    30    31    1
    31    31    32    1
    32    32    33    1
    33    33    34    1
    34     8     2   ar
    35    33    27    1
    36    17     9   ar
    37    17    13   ar
    38    24    19   am
    39    31    35    1
@<TRIPOS>MOLECULE
*****
 35 39 0 0 0
SMALL
GASTEIGER

@<TRIPOS>ATOM
      1 C         137.6678  143.8500  164.7338 C.3     1  UNL1        0.0308
      2 C         138.7051  143.6403  164.4589 C.ar    1  UNL1       -0.0237
      3 C         139.4831  144.8772  164.1199 C.ar    1  UNL1        0.0069
      4 C         140.9249  144.7704  163.7201 C.ar    1  UNL1        0.0573
      5 CL        141.7028  146.0073  163.3811 Cl      1  UNL1       -0.0823
      6 C         141.5887  143.4266  163.6593 C.ar    1  UNL1        0.0111
      7 C         140.8108  142.1898  163.9983 C.ar    1  UNL1       -0.0015
      8 C         139.3690  142.2966  164.3981 C.ar    1  UNL1       -0.0100
      9 C         141.4746  140.8460  163.9375 C.ar    1  UNL1        0.0087
     10 C         141.6351  140.1477  162.6197 C.ar    1  UNL1        0.0212
     11 C         142.2989  138.8039  162.5590 C.ar    1  UNL1        0.0989
     12 N         142.8023  138.1585  163.8160 N.ar    1  UNL1       -0.2433
     13 C         142.6418  138.8569  165.1338 C.ar    1  UNL1        0.0875
     14 C         143.0352  138.4707  166.5288 C.ar    1  UNL1        0.0235
     15 C         142.6145  139.5758  167.4518 C.ar    1  UNL1        0.0292
     16 S         141.9611  140.6449  166.6271 S.2     1  UNL1       -0.0880
     17 C         141.9780  140.2006  165.1945 C.ar    1  UNL1        0.0468
     18 C         142.8124  139.6064  168.9384 C.3     1  UNL1        0.1339
     19 N         142.2468  140.7358  169.7473 N.am    1  UNL1       -0.2250
     20 C         140.9771  140.6995  170.5450 C.2     1  UNL1        0.2321
     21 O         140.0500  139.5273  170.6739 O.2     1  UNL1       -0.2744
     22 C         140.7971  142.0412  171.1912 C.3     1  UNL1        0.0953
     23 C         141.9556  142.9067  170.7928 C.3     1  UNL1        0.0953
     24 C         142.8516  142.0999  169.9004 C.2     1  UNL1        0.2321
     25 O         144.1282  142.5741  169.2716 O.2     1  UNL1       -0.2744
     26 C         138.5910  141.0596  164.7370 C.3     1  UNL1        0.0988
     27 N         138.4620  139.9553  163.7301 N.3     1  UNL1       -0.2689
     28 C         138.7631  138.5402  164.1262 C.3     1  UNL1        0.0736
     29 C         139.0832  138.1860  165.1100 C.3     1  UNL1        0.0188
     30 C         138.6341  137.4359  163.1193 C.3     1  UNL1        0.0847
     31 N         138.2039  137.7468  161.7163 N.3     1  UNL1       -0.2952
     32 C         137.9028  139.1618  161.3202 C.3     1  UNL1        0.0847
     33 C         138.0319  140.2661  162.3272 C.3     1  UNL1        0.0736
     34 C         137.7308  141.6812  161.9311 C.3     1  UNL1        0.0188
     35 H         137.3573  137.2055  161.5411 H       1  UNL1        0.1233
@<TRIPOS>BOND
     1     1     2    1
     2     2     3   ar
     3     3     4   ar
     4     4     5    1
     5     4     6   ar
     6     6     7   ar
     7     7     9    1
     8     9    10   ar
     9    10    11   ar
    10    11    12   ar
    11    12    13   ar
    12    13    14   ar
    13    14    15   ar
    14    15    18    1
    15    18    19    1
    16    19    20   am
    17    20    21    2
    18    20    22    1
    19    22    23    1
    20    23    24    1
    21    24    25    2
    22    15    16   ar
    23    16    17   ar
    24     7     8   ar
    25     8    26    1
    26    26    27    1
    27    27    28    1
    28    28    29    1
    29    28    30    1
    30    30    31    1
    31    31    32    1
    32    32    33    1
    33    33    34    1
    34     8     2   ar
    35    33    27    1
    36    17     9   ar
    37    17    13   ar
    38    24    19   am
    39    31    35    1
@<TRIPOS>MOLECULE
*****
 35 39 0 0 0
SMALL
GASTEIGER

@<TRIPOS>ATOM
      1 C         143.0179  141.6121  168.4686 C.3     1  UNL1        0.0308
      2 C         142.1533  141.0648  168.0832 C.ar    1  UNL1       -0.0237
      3 C         141.0021  141.0357  169.0445 C.ar    1  UNL1        0.0069
      4 C         139.7338  140.3255  168.6744 C.ar    1  UNL1        0.0573
      5 CL        138.5826  140.2964  169.6356 Cl      1  UNL1       -0.0823
      6 C         139.6167  139.6443  167.3431 C.ar    1  UNL1        0.0111
      7 C         140.7679  139.6734  166.3819 C.ar    1  UNL1       -0.0015
      8 C         142.0362  140.3836  166.7520 C.ar    1  UNL1       -0.0100
      9 C         140.6508  138.9922  165.0506 C.ar    1  UNL1        0.0087
     10 C         141.1749  137.5981  164.8727 C.ar    1  UNL1        0.0212
     11 C         141.0578  136.9170  163.5415 C.ar    1  UNL1        0.0989
     12 N         140.4166  137.6300  162.3880 N.ar    1  UNL1       -0.2433
     13 C         139.8924  139.0241  162.5658 C.ar    1  UNL1        0.0875
     14 C         139.2164  139.9706  161.6188 C.ar    1  UNL1        0.0235
     15 C         138.9156  141.2368  162.3648 C.ar    1  UNL1        0.0292
     16 S         139.4058  141.0728  163.7729 S.2     1  UNL1       -0.0880
     17 C         140.0095  139.7052  163.8971 C.ar    1  UNL1        0.0468
     18 C         138.2427  142.4534  161.8015 C.3     1  UNL1        0.1339
     19 N         139.0082  143.7354  161.6587 N.am    1  UNL1       -0.2250
     20 C         139.7988  144.1611  160.4572 C.2     1  UNL1        0.2321
     21 O         139.9628  143.3795  159.1875 O.2     1  UNL1       -0.2744
     22 C         140.3967  145.5057  160.7484 C.3     1  UNL1        0.0953
     23 C         139.9756  145.9109  162.1298 C.3     1  UNL1        0.0953
     24 C         139.1175  144.8168  162.6925 C.2     1  UNL1        0.2321
     25 O         138.4804  144.8061  164.0504 O.2     1  UNL1       -0.2744
     26 C         143.1874  140.4127  165.7907 C.3     1  UNL1        0.0988
     27 N         143.0620  141.1537  164.4926 N.3     1  UNL1       -0.2689
     28 C         142.5337  142.5576  164.4783 C.3     1  UNL1        0.0736
     29 C         142.2086  143.1472  165.3400 C.3     1  UNL1        0.0188
     30 C         142.4082  143.2986  163.1802 C.3     1  UNL1        0.0847
     31 N         142.8111  142.6357  161.8963 N.3     1  UNL1       -0.2952
     32 C         143.3394  141.2319  161.9105 C.3     1  UNL1        0.0847
     33 C         143.4648  140.4909  163.2087 C.3     1  UNL1        0.0736
     34 C         143.9931  139.0871  163.2229 C.3     1  UNL1        0.0188
     35 H         143.5363  143.2190  161.4787 H       1  UNL1        0.1233
@<TRIPOS>BOND
     1     1     2    1
     2     2     3   ar
     3     3     4   ar
     4     4     5    1
     5     4     6   ar
     6     6     7   ar
     7     7     9    1
     8     9    10   ar
     9    10    11   ar
    10    11    12   ar
    11    12    13   ar
    12    13    14   ar
    13    14    15   ar
    14    15    18    1
    15    18    19    1
    16    19    20   am
    17    20    21    2
    18    20    22    1
    19    22    23    1
    20    23    24    1
    21    24    25    2
    22    15    16   ar
    23    16    17   ar
    24     7     8   ar
    25     8    26    1
    26    26    27    1
    27    27    28    1
    28    28    29    1
    29    28    30    1
    30    30    31    1
    31    31    32    1
    32    32    33    1
    33    33    34    1
    34     8     2   ar
    35    33    27    1
    36    17     9   ar
    37    17    13   ar
    38    24    19   am
    39    31    35    1
@<TRIPOS>MOLECULE
*****
 35 39 0 0 0
SMALL
GASTEIGER

@<TRIPOS>ATOM
      1 C         143.9323  144.5073  162.9178 C.3     1  UNL1        0.0308
      2 C         142.8782  144.2227  162.8600 C.ar    1  UNL1       -0.0237
      3 C         141.9818  145.3665  162.4880 C.ar    1  UNL1        0.0069
      4 C         140.5026  145.1506  162.3640 C.ar    1  UNL1        0.0573
      5 CL        139.6063  146.2943  161.9920 Cl      1  UNL1       -0.0823
      6 C         139.9198  143.7908  162.6122 C.ar    1  UNL1        0.0111
      7 C         140.8161  142.6471  162.9842 C.ar    1  UNL1       -0.0015
      8 C         142.2953  142.8630  163.1081 C.ar    1  UNL1       -0.0100
      9 C         140.2332  141.2874  163.2323 C.ar    1  UNL1        0.0087
     10 C         139.8698  140.4047  162.0753 C.ar    1  UNL1        0.0212
     11 C         139.2869  139.0450  162.3235 C.ar    1  UNL1        0.0989
     12 N         139.0675  138.5681  163.7287 N.ar    1  UNL1       -0.2433
     13 C         139.4310  139.4508  164.8856 C.ar    1  UNL1        0.0875
     14 C         139.3300  139.2536  166.3692 C.ar    1  UNL1        0.0235
     15 C         139.8505  140.4913  167.0379 C.ar    1  UNL1        0.0292
     16 S         140.2731  141.4536  165.9677 S.2     1  UNL1       -0.0880
     17 C         140.0138  140.8105  164.6375 C.ar    1  UNL1        0.0468
     18 C         139.9336  140.7256  168.5172 C.3     1  UNL1        0.1339
     19 N         141.1413  141.3944  169.1039 N.am    1  UNL1       -0.2250
     20 C         141.1852  142.7705  169.6990 C.2     1  UNL1        0.2321
     21 O         140.0291  143.7196  169.8119 O.2     1  UNL1       -0.2744
     22 C         142.5882  143.0310  170.1614 C.3     1  UNL1        0.0953
     23 C         143.4114  141.8159  169.8520 C.3     1  UNL1        0.0953
     24 C         142.5172  140.8044  169.1985 C.2     1  UNL1        0.2321
     25 O         142.9269  139.4420  168.7229 O.2     1  UNL1       -0.2744
     26 C         143.1916  141.7192  163.4801 C.3     1  UNL1        0.0988
     27 N         143.3646  140.5648  162.5381 N.3     1  UNL1       -0.2689
     28 C         143.5964  140.8168  161.0776 C.3     1  UNL1        0.0736
     29 C         143.6597  141.7880  160.5793 C.3     1  UNL1        0.0188
     30 C         143.7693  139.6624  160.1356 C.3     1  UNL1        0.0847
     31 N         143.7105  138.2560  160.6540 N.3     1  UNL1       -0.2952
     32 C         143.4787  138.0040  162.1144 C.3     1  UNL1        0.0847
     33 C         143.3058  139.1585  163.0565 C.3     1  UNL1        0.0736
     34 C         143.0740  138.9065  164.5168 C.3     1  UNL1        0.0188
     35 H         144.6004  137.8174  160.4172 H       1  UNL1        0.1233
@<TRIPOS>BOND
     1     1     2    1
     2     2     3   ar
     3     3     4   ar
     4     4     5    1
     5     4     6   ar
     6     6     7   ar
     7     7     9    1
     8     9    10   ar
     9    10    11   ar
    10    11    12   ar
    11    12    13   ar
    12    13    14   ar
    13    14    15   ar
    14    15    18    1
    15    18    19    1
    16    19    20   am
    17    20    21    2
    18    20    22    1
    19    22    23    1
    20    23    24    1
    21    24    25    2
    22    15    16   ar
    23    16    17   ar
    24     7     8   ar
    25     8    26    1
    26    26    27    1
    27    27    28    1
    28    28    29    1
    29    28    30    1
    30    30    31    1
    31    31    32    1
    32    32    33    1
    33    33    34    1
    34     8     2   ar
    35    33    27    1
    36    17     9   ar
    37    17    13   ar
    38    24    19   am
    39    31    35    1
@<TRIPOS>MOLECULE
*****
 35 39 0 0 0
SMALL
GASTEIGER

@<TRIPOS>ATOM
      1 C         138.1109  142.6863  162.1287 C.3     1  UNL1        0.0308
      2 C         138.5691  141.7045  162.2757 C.ar    1  UNL1       -0.0237
      3 C         137.6863  140.5741  161.8363 C.ar    1  UNL1        0.0069
      4 C         138.1608  139.1572  161.9678 C.ar    1  UNL1        0.0573
      5 CL        137.2781  138.0268  161.5285 Cl      1  UNL1       -0.0823
      6 C         139.5181  138.8707  162.5386 C.ar    1  UNL1        0.0111
      7 C         140.4009  140.0011  162.9779 C.ar    1  UNL1       -0.0015
      8 C         139.9264  141.4180  162.8464 C.ar    1  UNL1       -0.0100
      9 C         141.7582  139.7146  163.5487 C.ar    1  UNL1        0.0087
     10 C         142.9153  139.4454  162.6330 C.ar    1  UNL1        0.0212
     11 C         144.2725  139.1589  163.2039 C.ar    1  UNL1        0.0989
     12 N         144.4726  139.1417  164.6904 N.ar    1  UNL1       -0.2433
     13 C         143.3154  139.4109  165.6060 C.ar    1  UNL1        0.0875
     14 C         143.2093  139.4608  167.1014 C.ar    1  UNL1        0.0235
     15 C         141.7864  139.7781  167.4548 C.ar    1  UNL1        0.0292
     16 S         141.0132  139.9243  166.1779 S.2     1  UNL1       -0.0880
     17 C         141.9582  139.6974  165.0352 C.ar    1  UNL1        0.0468
     18 C         141.2339  139.9236  168.8418 C.3     1  UNL1        0.1339
     19 N         140.9218  141.2862  169.3856 N.am    1  UNL1       -0.2250
     20 C         139.6688  141.6807  170.1098 C.2     1  UNL1        0.2321
     21 O         138.5080  140.7819  170.4173 O.2     1  UNL1       -0.2744
     22 C         139.7805  143.1320  170.4725 C.3     1  UNL1        0.0953
     23 C         141.1025  143.6343  169.9725 C.3     1  UNL1        0.0953
     24 C         141.8078  142.4936  169.3008 C.2     1  UNL1        0.2321
     25 O         143.1615  142.5504  168.6572 O.2     1  UNL1       -0.2744
     26 C         140.8092  142.5484  163.2858 C.3     1  UNL1        0.0988
     27 N         142.1612  142.7301  162.6620 N.3     1  UNL1       -0.2689
     28 C         142.3114  142.6832  161.1703 C.3     1  UNL1        0.0736
     29 C         141.5189  142.5247  160.4336 C.3     1  UNL1        0.0188
     30 C         143.6634  142.8650  160.5465 C.3     1  UNL1        0.0847
     31 N         144.8652  143.0936  161.4146 N.3     1  UNL1       -0.2952
     32 C         144.7150  143.1405  162.9063 C.3     1  UNL1        0.0847
     33 C         143.3629  142.9588  163.5300 C.3     1  UNL1        0.0736
     34 C         143.2127  143.0057  165.0217 C.3     1  UNL1        0.0188
     35 H         145.2676  143.9869  161.1310 H       1  UNL1        0.1233
@<TRIPOS>BOND
     1     1     2    1
     2     2     3   ar
     3     3     4   ar
     4     4     5    1
     5     4     6   ar
     6     6     7   ar
     7     7     9    1
     8     9    10   ar
     9    10    11   ar
    10    11    12   ar
    11    12    13   ar
    12    13    14   ar
    13    14    15   ar
    14    15    18    1
    15    18    19    1
    16    19    20   am
    17    20    21    2
    18    20    22    1
    19    22    23    1
    20    23    24    1
    21    24    25    2
    22    15    16   ar
    23    16    17   ar
    24     7     8   ar
    25     8    26    1
    26    26    27    1
    27    27    28    1
    28    28    29    1
    29    28    30    1
    30    30    31    1
    31    31    32    1
    32    32    33    1
    33    33    34    1
    34     8     2   ar
    35    33    27    1
    36    17     9   ar
    37    17    13   ar
    38    24    19   am
    39    31    35    1
@<TRIPOS>MOLECULE
*****
 35 39 0 0 0
SMALL
GASTEIGER

@<TRIPOS>ATOM
      1 C         141.3106  140.7647  168.0854 C.3     1  UNL1        0.0308
      2 C         140.4658  140.6866  167.3956 C.ar    1  UNL1       -0.0237
      3 C         139.5475  139.5459  167.7203 C.ar    1  UNL1        0.0069
      4 C         138.3356  139.2940  166.8729 C.ar    1  UNL1        0.0573
      5 CL        137.4173  138.1533  167.1976 Cl      1  UNL1       -0.0823
      6 C         138.0421  140.1830  165.7008 C.ar    1  UNL1        0.0111
      7 C         138.9604  141.3237  165.3762 C.ar    1  UNL1       -0.0015
      8 C         140.1723  141.5755  166.2235 C.ar    1  UNL1       -0.0100
      9 C         138.6669  142.2126  164.2041 C.ar    1  UNL1        0.0087
     10 C         137.9043  143.4888  164.4031 C.ar    1  UNL1        0.0212
     11 C         137.6109  144.3777  163.2310 C.ar    1  UNL1        0.0989
     12 N         138.0800  143.9903  161.8599 N.ar    1  UNL1       -0.2433
     13 C         138.8426  142.7141  161.6609 C.ar    1  UNL1        0.0875
     14 C         139.4282  142.0753  160.4366 C.ar    1  UNL1        0.0235
     15 C         140.0837  140.7916  160.8520 C.ar    1  UNL1        0.0292
     16 S         139.9031  140.6370  162.3331 S.2     1  UNL1       -0.0880
     17 C         139.1361  141.8252  162.8330 C.ar    1  UNL1        0.0468
     18 C         140.7949  139.8311  159.9455 C.3     1  UNL1        0.1339
     19 N         142.0862  139.2046  160.3813 N.am    1  UNL1       -0.2250
     20 C         143.4611  139.6434  159.9726 C.2     1  UNL1        0.2321
     21 O         143.7861  140.7857  159.0563 O.2     1  UNL1       -0.2744
     22 C         144.4540  138.7392  160.6410 C.3     1  UNL1        0.0953
     23 C         143.6928  137.7417  161.4628 C.3     1  UNL1        0.0953
     24 C         142.2294  138.0293  161.3023 C.2     1  UNL1        0.2321
     25 O         141.1063  137.2742  161.9492 O.2     1  UNL1       -0.2744
     26 C         141.0906  142.7163  165.8988 C.3     1  UNL1        0.0988
     27 N         141.9716  142.6482  164.6867 N.3     1  UNL1       -0.2689
     28 C         142.8288  141.4403  164.4495 C.3     1  UNL1        0.0736
     29 C         142.9009  140.5501  165.0805 C.3     1  UNL1        0.0188
     30 C         143.7098  141.3722  163.2373 C.3     1  UNL1        0.0847
     31 N         143.7336  142.5120  162.2625 N.3     1  UNL1       -0.2952
     32 C         142.8764  143.7198  162.4997 C.3     1  UNL1        0.0847
     33 C         141.9954  143.7879  163.7118 C.3     1  UNL1        0.0736
     34 C         141.1382  144.9957  163.9491 C.3     1  UNL1        0.0188
     35 H         143.4606  142.1305  161.3567 H       1  UNL1        0.1233
@<TRIPOS>BOND
     1     1     2    1
     2     2     3   ar
     3     3     4   ar
     4     4     5    1
     5     4     6   ar
     6     6     7   ar
     7     7     9    1
     8     9    10   ar
     9    10    11   ar
    10    11    12   ar
    11    12    13   ar
    12    13    14   ar
    13    14    15   ar
    14    15    18    1
    15    18    19    1
    16    19    20   am
    17    20    21    2
    18    20    22    1
    19    22    23    1
    20    23    24    1
    21    24    25    2
    22    15    16   ar
    23    16    17   ar
    24     7     8   ar
    25     8    26    1
    26    26    27    1
    27    27    28    1
    28    28    29    1
    29    28    30    1
    30    30    31    1
    31    31    32    1
    32    32    33    1
    33    33    34    1
    34     8     2   ar
    35    33    27    1
    36    17     9   ar
    37    17    13   ar
    38    24    19   am
    39    31    35    1
@<TRIPOS>MOLECULE
*****
 35 39 0 0 0
SMALL
GASTEIGER

@<TRIPOS>ATOM
      1 C         137.8231  142.3346  162.2869 C.3     1  UNL1        0.0308
      2 C         138.3526  141.3854  162.4070 C.ar    1  UNL1       -0.0237
      3 C         137.5367  140.2012  161.9802 C.ar    1  UNL1        0.0069
      4 C         138.1120  138.8194  162.0786 C.ar    1  UNL1        0.0573
      5 CL        137.2963  137.6352  161.6518 Cl      1  UNL1       -0.0823
      6 C         139.5032  138.6218  162.6039 C.ar    1  UNL1        0.0111
      7 C         140.3189  139.8060  163.0307 C.ar    1  UNL1       -0.0015
      8 C         139.7436  141.1878  162.9322 C.ar    1  UNL1       -0.0100
      9 C         141.7100  139.6085  163.5559 C.ar    1  UNL1        0.0087
     10 C         142.8469  139.3858  162.6031 C.ar    1  UNL1        0.0212
     11 C         144.2379  139.1883  163.1284 C.ar    1  UNL1        0.0989
     12 N         144.4921  139.2134  164.6065 N.ar    1  UNL1       -0.2433
     13 C         143.3552  139.4361  165.5593 C.ar    1  UNL1        0.0875
     14 C         143.3003  139.5111  167.0564 C.ar    1  UNL1        0.0235
     15 C         141.8754  139.7551  167.4564 C.ar    1  UNL1        0.0292
     16 S         141.0495  139.8308  166.2065 S.2     1  UNL1       -0.0880
     17 C         141.9642  139.6336  165.0340 C.ar    1  UNL1        0.0468
     18 C         141.3657  139.8982  168.8600 C.3     1  UNL1        0.1339
     19 N         141.0130  141.2543  169.3952 N.am    1  UNL1       -0.2250
     20 C         141.8811  142.4764  169.3417 C.2     1  UNL1        0.2321
     21 O         143.2543  142.5569  168.7435 O.2     1  UNL1       -0.2744
     22 C         141.1348  143.6038  169.9914 C.3     1  UNL1        0.0953
     23 C         139.8056  143.0785  170.4464 C.3     1  UNL1        0.0953
     24 C         139.7303  141.6264  170.0780 C.2     1  UNL1        0.2321
     25 O         138.5751  140.7078  170.3454 O.2     1  UNL1       -0.2744
     26 C         140.5594  142.3721  163.3591 C.3     1  UNL1        0.0988
     27 N         140.6176  143.5945  162.4918 N.3     1  UNL1       -0.2689
     28 C         141.2823  143.5302  161.1485 C.3     1  UNL1        0.0736
     29 C         141.7582  142.6586  160.6908 C.3     1  UNL1        0.0188
     30 C         141.3405  144.7527  160.2813 C.3     1  UNL1        0.0847
     31 N         140.7341  146.0395  160.7572 N.3     1  UNL1       -0.2952
     32 C         140.0695  146.1038  162.1004 C.3     1  UNL1        0.0847
     33 C         140.0113  144.8813  162.9677 C.3     1  UNL1        0.0736
     34 C         139.3466  144.9456  164.3108 C.3     1  UNL1        0.0188
     35 H         140.0313  146.3065  160.0679 H       1  UNL1        0.1233
@<TRIPOS>BOND
     1     1     2    1
     2     2     3   ar
     3     3     4   ar
     4     4     5    1
     5     4     6   ar
     6     6     7   ar
     7     7     9    1
     8     9    10   ar
     9    10    11   ar
    10    11    12   ar
    11    12    13   ar
    12    13    14   ar
    13    14    15   ar
    14    15    18    1
    15    18    19    1
    16    19    20   am
    17    20    21    2
    18    20    22    1
    19    22    23    1
    20    23    24    1
    21    24    25    2
    22    15    16   ar
    23    16    17   ar
    24     7     8   ar
    25     8    26    1
    26    26    27    1
    27    27    28    1
    28    28    29    1
    29    28    30    1
    30    30    31    1
    31    31    32    1
    32    32    33    1
    33    33    34    1
    34     8     2   ar
    35    33    27    1
    36    17     9   ar
    37    17    13   ar
    38    24    19   am
    39    31    35    1
@<TRIPOS>MOLECULE
*****
 35 39 0 0 0
SMALL
GASTEIGER

@<TRIPOS>ATOM
      1 C         145.0639  141.8054  162.0354 C.3     1  UNL1        0.0308
      2 C         144.1931  142.2747  162.5014 C.ar    1  UNL1       -0.0237
      3 C         144.5048  143.6062  163.1179 C.ar    1  UNL1        0.0069
      4 C         143.4223  144.3882  163.8010 C.ar    1  UNL1        0.0573
      5 CL        143.7339  145.7197  164.4175 Cl      1  UNL1       -0.0823
      6 C         142.0281  143.8387  163.8676 C.ar    1  UNL1        0.0111
      7 C         141.7165  142.5073  163.2511 C.ar    1  UNL1       -0.0015
      8 C         142.7990  141.7253  162.5680 C.ar    1  UNL1       -0.0100
      9 C         140.3223  141.9578  163.3176 C.ar    1  UNL1        0.0087
     10 C         139.4016  142.1041  162.1426 C.ar    1  UNL1        0.0212
     11 C         138.0075  141.5546  162.2092 C.ar    1  UNL1        0.0989
     12 N         137.5341  140.8588  163.4509 N.ar    1  UNL1       -0.2433
     13 C         138.4548  140.7125  164.6259 C.ar    1  UNL1        0.0875
     14 C         138.2697  140.0803  165.9735 C.ar    1  UNL1        0.0235
     15 C         139.5494  140.2390  166.7398 C.ar    1  UNL1        0.0292
     16 S         140.5254  140.9694  165.8658 S.2     1  UNL1       -0.0880
     17 C         139.8489  141.2620  164.5593 C.ar    1  UNL1        0.0468
     18 C         139.8076  139.7528  168.1352 C.3     1  UNL1        0.1339
     19 N         140.8605  140.4117  168.9761 N.am    1  UNL1       -0.2250
     20 C         140.6245  141.4592  170.0235 C.2     1  UNL1        0.2321
     21 O         139.2942  142.0317  170.4138 O.2     1  UNL1       -0.2744
     22 C         141.9525  141.8336  170.6121 C.3     1  UNL1        0.0953
     23 C         143.0092  141.0175  169.9285 C.3     1  UNL1        0.0953
     24 C         142.3343  140.1387  168.9174 C.2     1  UNL1        0.2321
     25 O         143.0140  139.1590  168.0073 O.2     1  UNL1       -0.2744
     26 C         142.4874  140.3937  161.9515 C.3     1  UNL1        0.0988
     27 N         142.0440  139.2518  162.8172 N.3     1  UNL1       -0.2689
     28 C         142.8049  138.9181  164.0662 C.3     1  UNL1        0.0736
     29 C         143.6924  139.4272  164.4520 C.3     1  UNL1        0.0188
     30 C         142.3615  137.7762  164.9319 C.3     1  UNL1        0.0847
     31 N         141.1574  136.9679  164.5485 N.3     1  UNL1       -0.2952
     32 C         140.3967  137.3016  163.2996 C.3     1  UNL1        0.0847
     33 C         140.8400  138.4435  162.4339 C.3     1  UNL1        0.0736
     34 C         140.0793  138.7772  161.1850 C.3     1  UNL1        0.0188
     35 H         140.4972  137.0377  165.3229 H       1  UNL1        0.1233
@<TRIPOS>BOND
     1     1     2    1
     2     2     3   ar
     3     3     4   ar
     4     4     5    1
     5     4     6   ar
     6     6     7   ar
     7     7     9    1
     8     9    10   ar
     9    10    11   ar
    10    11    12   ar
    11    12    13   ar
    12    13    14   ar
    13    14    15   ar
    14    15    18    1
    15    18    19    1
    16    19    20   am
    17    20    21    2
    18    20    22    1
    19    22    23    1
    20    23    24    1
    21    24    25    2
    22    15    16   ar
    23    16    17   ar
    24     7     8   ar
    25     8    26    1
    26    26    27    1
    27    27    28    1
    28    28    29    1
    29    28    30    1
    30    30    31    1
    31    31    32    1
    32    32    33    1
    33    33    34    1
    34     8     2   ar
    35    33    27    1
    36    17     9   ar
    37    17    13   ar
    38    24    19   am
    39    31    35    1
@<TRIPOS>MOLECULE
*****
 35 39 0 0 0
SMALL
GASTEIGER

@<TRIPOS>ATOM
      1 C         143.6785  143.6503  162.1300 C.3     1  UNL1        0.0308
      2 C         142.6168  143.4713  162.3212 C.ar    1  UNL1       -0.0237
      3 C         141.7869  144.7177  162.2314 C.ar    1  UNL1        0.0069
      4 C         140.3069  144.6517  162.4662 C.ar    1  UNL1        0.0573
      5 CL        139.4770  145.8979  162.3765 Cl      1  UNL1       -0.0823
      6 C         139.6568  143.3394  162.7908 C.ar    1  UNL1        0.0111
      7 C         140.4867  142.0932  162.8806 C.ar    1  UNL1       -0.0015
      8 C         141.9667  142.1591  162.6457 C.ar    1  UNL1       -0.0100
      9 C         139.8365  140.7809  163.2052 C.ar    1  UNL1        0.0087
     10 C         139.4181  139.8574  162.0997 C.ar    1  UNL1        0.0212
     11 C         138.7680  138.5452  162.4243 C.ar    1  UNL1        0.0989
     12 N         138.5364  138.1564  163.8544 N.ar    1  UNL1       -0.2433
     13 C         138.9548  139.0799  164.9599 C.ar    1  UNL1        0.0875
     14 C         138.8565  138.9680  166.4525 C.ar    1  UNL1        0.0235
     15 C         139.4458  140.2111  167.0503 C.ar    1  UNL1        0.0292
     16 S         139.9084  141.0913  165.9273 S.2     1  UNL1       -0.0880
     17 C         139.6049  140.3921  164.6353 C.ar    1  UNL1        0.0468
     18 C         139.5537  140.5198  168.5143 C.3     1  UNL1        0.1339
     19 N         140.7871  141.1824  169.0522 N.am    1  UNL1       -0.2250
     20 C         141.0184  142.6606  169.1595 C.2     1  UNL1        0.2321
     21 O         140.0567  143.7356  168.7478 O.2     1  UNL1       -0.2744
     22 C         142.3802  142.8750  169.7509 C.3     1  UNL1        0.0953
     23 C         142.9905  141.5293  170.0090 C.3     1  UNL1        0.0953
     24 C         142.0060  140.4833  169.5772 C.2     1  UNL1        0.2321
     25 O         142.2053  138.9987  169.6565 O.2     1  UNL1       -0.2744
     26 C         142.7966  140.9128  162.7355 C.3     1  UNL1        0.0988
     27 N         142.9378  140.1986  164.0470 N.3     1  UNL1       -0.2689
     28 C         143.3419  140.9589  165.2753 C.3     1  UNL1        0.0736
     29 C         143.5601  142.0281  165.3455 C.3     1  UNL1        0.0188
     30 C         143.4831  140.2447  166.5868 C.3     1  UNL1        0.0847
     31 N         143.2202  138.7702  166.6700 N.3     1  UNL1       -0.2952
     32 C         142.8160  138.0100  165.4417 C.3     1  UNL1        0.0847
     33 C         142.6749  138.7242  164.1302 C.3     1  UNL1        0.0736
     34 C         142.2708  137.9640  162.9019 C.3     1  UNL1        0.0188
     35 H         142.4745  138.6422  167.3541 H       1  UNL1        0.1233
@<TRIPOS>BOND
     1     1     2    1
     2     2     3   ar
     3     3     4   ar
     4     4     5    1
     5     4     6   ar
     6     6     7   ar
     7     7     9    1
     8     9    10   ar
     9    10    11   ar
    10    11    12   ar
    11    12    13   ar
    12    13    14   ar
    13    14    15   ar
    14    15    18    1
    15    18    19    1
    16    19    20   am
    17    20    21    2
    18    20    22    1
    19    22    23    1
    20    23    24    1
    21    24    25    2
    22    15    16   ar
    23    16    17   ar
    24     7     8   ar
    25     8    26    1
    26    26    27    1
    27    27    28    1
    28    28    29    1
    29    28    30    1
    30    30    31    1
    31    31    32    1
    32    32    33    1
    33    33    34    1
    34     8     2   ar
    35    33    27    1
    36    17     9   ar
    37    17    13   ar
    38    24    19   am
    39    31    35    1
