@<TRIPOS>MOLECULE
*****
 28 31 0 0 0
SMALL
GASTEIGER

@<TRIPOS>ATOM
      1 N         140.7573  140.1040  165.4816 N.ar    1  UNL1       -0.2915
      2 C         141.4721  140.5301  164.2336 C.ar    1  UNL1        0.1658
      3 N         140.4985  140.4598  163.0947 N.ar    1  UNL1       -0.2282
      4 C         139.1819  139.9901  163.6388 C.ar    1  UNL1        0.0885
      5 C         139.3419  139.7703  165.1140 C.ar    1  UNL1        0.0580
      6 C         138.2739  139.2994  166.0562 C.3     1  UNL1        0.0517
      7 C         143.1414  139.7896  170.9786 C.3     1  UNL1        0.0521
      8 C         142.5454  139.8682  169.6044 C.ar    1  UNL1        0.0595
      9 C         141.4225  140.8233  169.3274 C.ar    1  UNL1        0.0162
     10 C         140.8265  140.9019  167.9531 C.ar    1  UNL1        0.0203
     11 C         141.3534  140.0254  166.8558 C.ar    1  UNL1        0.0842
     12 C         142.4762  139.0702  167.1328 C.ar    1  UNL1        0.1159
     13 N         143.0723  138.9916  168.5071 N.ar    1  UNL1       -0.2466
     14 C         142.9085  140.9524  164.1407 C.ar    1  UNL1        0.1261
     15 N         143.9723  139.9349  163.8527 N.ar    1  UNL1       -0.2399
     16 C         145.4087  140.3572  163.7599 C.ar    1  UNL1        0.0990
     17 C         145.7812  141.7970  163.9550 C.ar    1  UNL1        0.0215
     18 C         144.7173  142.8145  164.2430 C.ar    1  UNL1        0.0146
     19 C         143.2810  142.3922  164.3358 C.ar    1  UNL1        0.0783
     20 CL        142.2172  143.4098  164.6238 Cl      1  UNL1       -0.0806
     21 C         137.9258  139.7777  162.8469 C.3     1  UNL1        0.1163
     22 N         137.0374  140.9421  162.5230 N.3     1  UNL1       -0.2935
     23 H         136.1344  140.7535  162.9583 H       1  UNL1        0.1236
     24 C         137.4364  142.3276  162.9365 C.3     1  UNL1        0.0543
     25 C         137.9859  143.3930  162.0349 C.3     1  UNL1        0.0157
     26 C         138.2451  144.6149  162.8654 C.3     1  UNL1        0.0014
     27 C         137.8557  144.3047  164.2805 C.3     1  UNL1        0.0014
     28 C         137.3559  142.8911  164.3243 C.3     1  UNL1        0.0157
@<TRIPOS>BOND
     1     7     8    1
     2     8     9   ar
     3     9    10   ar
     4    10    11   ar
     5    11     1    1
     6     1     2   ar
     7     2    14    1
     8    14    15   ar
     9    15    16   ar
    10    16    17   ar
    11    17    18   ar
    12    18    19   ar
    13    19    20    1
    14     2     3   ar
    15     3     4   ar
    16     4    21    1
    17    21    22    1
    18    22    24    1
    19    24    25    1
    20    25    26    1
    21    26    27    1
    22    27    28    1
    23     4     5   ar
    24     5     6    1
    25    11    12   ar
    26    12    13   ar
    27    13     8   ar
    28     5     1   ar
    29    19    14   ar
    30    28    24    1
    31    22    23    1
@<TRIPOS>MOLECULE
*****
 28 31 0 0 0
SMALL
GASTEIGER

@<TRIPOS>ATOM
      1 N         141.9584  139.3888  165.3173 N.ar    1  UNL1       -0.2915
      2 C         140.9181  140.3745  165.7604 C.ar    1  UNL1        0.1658
      3 N         141.0299  140.5292  167.2482 N.ar    1  UNL1       -0.2282
      4 C         142.1393  139.6391  167.7246 C.ar    1  UNL1        0.0885
      5 C         142.7131  138.9344  166.5313 C.ar    1  UNL1        0.0580
      6 C         143.8433  137.9482  166.5489 C.3     1  UNL1        0.0517
      7 C         142.9299  137.5815  159.6791 C.3     1  UNL1        0.0521
      8 C         142.6870  138.0333  161.0886 C.ar    1  UNL1        0.0595
      9 C         143.6217  139.0132  161.7337 C.ar    1  UNL1        0.0162
     10 C         143.3788  139.4650  163.1432 C.ar    1  UNL1        0.0203
     11 C         142.2013  138.9370  163.9077 C.ar    1  UNL1        0.0842
     12 C         141.2666  137.9571  163.2627 C.ar    1  UNL1        0.1159
     13 N         141.5095  137.5053  161.8531 N.ar    1  UNL1       -0.2466
     14 C         139.9381  141.0814  164.8716 C.ar    1  UNL1        0.1261
     15 N         140.3412  142.3403  164.1626 N.ar    1  UNL1       -0.2399
     16 C         139.3611  143.0472  163.2738 C.ar    1  UNL1        0.0990
     17 C         137.9780  142.4953  163.0942 C.ar    1  UNL1        0.0215
     18 C         137.5749  141.2364  163.8032 C.ar    1  UNL1        0.0146
     19 C         138.5550  140.5295  164.6919 C.ar    1  UNL1        0.0783
     20 CL        138.1518  139.2706  165.4010 Cl      1  UNL1       -0.0806
     21 C         142.5949  139.4815  169.1450 C.3     1  UNL1        0.1163
     22 N         142.8269  140.6939  169.9973 N.3     1  UNL1       -0.2935
     23 H         143.6567  141.1586  169.6286 H       1  UNL1        0.1236
     24 C         141.7606  141.7420  170.1163 C.3     1  UNL1        0.0543
     25 C         141.8495  143.1517  169.6115 C.3     1  UNL1        0.0157
     26 C         140.5620  143.8455  169.9443 C.3     1  UNL1        0.0014
     27 C         139.6771  142.8645  170.6550 C.3     1  UNL1        0.0014
     28 C         140.4180  141.5645  170.7612 C.3     1  UNL1        0.0157
@<TRIPOS>BOND
     1     7     8    1
     2     8     9   ar
     3     9    10   ar
     4    10    11   ar
     5    11     1    1
     6     1     2   ar
     7     2    14    1
     8    14    15   ar
     9    15    16   ar
    10    16    17   ar
    11    17    18   ar
    12    18    19   ar
    13    19    20    1
    14     2     3   ar
    15     3     4   ar
    16     4    21    1
    17    21    22    1
    18    22    24    1
    19    24    25    1
    20    25    26    1
    21    26    27    1
    22    27    28    1
    23     4     5   ar
    24     5     6    1
    25    11    12   ar
    26    12    13   ar
    27    13     8   ar
    28     5     1   ar
    29    19    14   ar
    30    28    24    1
    31    22    23    1
@<TRIPOS>MOLECULE
*****
 28 31 0 0 0
SMALL
GASTEIGER

@<TRIPOS>ATOM
      1 N         139.5702  140.8268  165.2094 N.ar    1  UNL1       -0.2915
      2 C         140.4437  141.9105  165.7686 C.ar    1  UNL1        0.1658
      3 N         140.4855  141.7493  167.2593 N.ar    1  UNL1       -0.2282
      4 C         139.6378  140.5660  167.6215 C.ar    1  UNL1        0.0885
      5 C         139.0721  139.9959  166.3546 C.ar    1  UNL1        0.0580
      6 C         138.1672  138.8040  166.2512 C.3     1  UNL1        0.0517
      7 C         138.2926  139.9668  159.4104 C.3     1  UNL1        0.0521
      8 C         138.6120  140.1818  160.8602 C.ar    1  UNL1        0.0595
      9 C         137.6135  140.8518  161.7568 C.ar    1  UNL1        0.0162
     10 C         137.9328  141.0668  163.2066 C.ar    1  UNL1        0.0203
     11 C         139.2508  140.6118  163.7597 C.ar    1  UNL1        0.0842
     12 C         140.2493  139.9419  162.8630 C.ar    1  UNL1        0.1159
     13 N         139.9300  139.7269  161.4133 N.ar    1  UNL1       -0.2466
     14 C         141.1512  142.9695  164.9761 C.ar    1  UNL1        0.1261
     15 N         142.6117  142.8241  164.6660 N.ar    1  UNL1       -0.2399
     16 C         143.3192  143.8830  163.8735 C.ar    1  UNL1        0.0990
     17 C         142.5663  145.0874  163.3911 C.ar    1  UNL1        0.0215
     18 C         141.1059  145.2328  163.7012 C.ar    1  UNL1        0.0146
     19 C         140.3984  144.1738  164.4937 C.ar    1  UNL1        0.0783
     20 CL        138.9380  144.3193  164.8037 Cl      1  UNL1       -0.0806
     21 C         139.3979  140.0444  169.0073 C.3     1  UNL1        0.1163
     22 N         140.5509  139.8581  169.9486 N.3     1  UNL1       -0.2935
     23 H         141.0229  138.9980  169.6695 H       1  UNL1        0.1236
     24 C         141.6082  140.9163  170.0581 C.3     1  UNL1        0.0543
     25 C         143.0272  140.7971  169.5868 C.3     1  UNL1        0.0157
     26 C         143.7282  142.0868  169.8955 C.3     1  UNL1        0.0014
     27 C         142.7423  143.0032  170.5577 C.3     1  UNL1        0.0014
     28 C         141.4321  142.2798  170.6581 C.3     1  UNL1        0.0157
@<TRIPOS>BOND
     1     7     8    1
     2     8     9   ar
     3     9    10   ar
     4    10    11   ar
     5    11     1    1
     6     1     2   ar
     7     2    14    1
     8    14    15   ar
     9    15    16   ar
    10    16    17   ar
    11    17    18   ar
    12    18    19   ar
    13    19    20    1
    14     2     3   ar
    15     3     4   ar
    16     4    21    1
    17    21    22    1
    18    22    24    1
    19    24    25    1
    20    25    26    1
    21    26    27    1
    22    27    28    1
    23     4     5   ar
    24     5     6    1
    25    11    12   ar
    26    12    13   ar
    27    13     8   ar
    28     5     1   ar
    29    19    14   ar
    30    28    24    1
    31    22    23    1
@<TRIPOS>MOLECULE
*****
 28 31 0 0 0
SMALL
GASTEIGER

@<TRIPOS>ATOM
      1 N         140.5030  141.2743  165.5097 N.ar    1  UNL1       -0.2915
      2 C         140.8312  141.8235  164.1530 C.ar    1  UNL1        0.1658
      3 N         140.0189  141.0726  163.1399 N.ar    1  UNL1       -0.2282
      4 C         139.1887  140.0592  163.8705 C.ar    1  UNL1        0.0885
      5 C         139.4879  140.1839  165.3351 C.ar    1  UNL1        0.0580
      6 C         138.8788  139.3624  166.4324 C.3     1  UNL1        0.0517
      7 C         142.8404  143.1156  170.7199 C.3     1  UNL1        0.0521
      8 C         142.2560  142.6553  169.4173 C.ar    1  UNL1        0.0595
      9 C         140.9183  143.1678  168.9726 C.ar    1  UNL1        0.0162
     10 C         140.3340  142.7074  167.6701 C.ar    1  UNL1        0.0203
     11 C         141.0874  141.7346  166.8122 C.ar    1  UNL1        0.0842
     12 C         142.4251  141.2221  167.2569 C.ar    1  UNL1        0.1159
     13 N         143.0094  141.6825  168.5594 N.ar    1  UNL1       -0.2466
     14 C         141.8014  142.9295  163.8606 C.ar    1  UNL1        0.1261
     15 N         143.1821  142.6063  163.3713 N.ar    1  UNL1       -0.2399
     16 C         144.1523  143.7123  163.0790 C.ar    1  UNL1        0.0990
     17 C         143.7419  145.1415  163.2759 C.ar    1  UNL1        0.0215
     18 C         142.3613  145.4648  163.7652 C.ar    1  UNL1        0.0146
     19 C         141.3911  144.3587  164.0575 C.ar    1  UNL1        0.0783
     20 CL        140.0104  144.6821  164.5468 Cl      1  UNL1       -0.0806
     21 C         138.2279  139.0912  163.2462 C.3     1  UNL1        0.1163
     22 N         138.7451  137.9173  162.4686 N.3     1  UNL1       -0.2935
     23 H         138.0548  137.7162  161.7450 H       1  UNL1        0.1236
     24 C         140.0777  137.9988  161.7851 C.3     1  UNL1        0.0543
     25 C         141.3963  137.5908  162.3724 C.3     1  UNL1        0.0157
     26 C         142.4594  137.8425  161.3445 C.3     1  UNL1        0.0014
     27 C         141.7978  138.4060  160.1218 C.3     1  UNL1        0.0014
     28 C         140.3258  138.5026  160.3942 C.3     1  UNL1        0.0157
@<TRIPOS>BOND
     1     7     8    1
     2     8     9   ar
     3     9    10   ar
     4    10    11   ar
     5    11     1    1
     6     1     2   ar
     7     2    14    1
     8    14    15   ar
     9    15    16   ar
    10    16    17   ar
    11    17    18   ar
    12    18    19   ar
    13    19    20    1
    14     2     3   ar
    15     3     4   ar
    16     4    21    1
    17    21    22    1
    18    22    24    1
    19    24    25    1
    20    25    26    1
    21    26    27    1
    22    27    28    1
    23     4     5   ar
    24     5     6    1
    25    11    12   ar
    26    12    13   ar
    27    13     8   ar
    28     5     1   ar
    29    19    14   ar
    30    28    24    1
    31    22    23    1
@<TRIPOS>MOLECULE
*****
 28 31 0 0 0
SMALL
GASTEIGER

@<TRIPOS>ATOM
      1 N         141.3844  140.2756  165.7178 N.ar    1  UNL1       -0.2915
      2 C         140.7120  140.9179  164.5408 C.ar    1  UNL1        0.1658
      3 N         141.1789  140.2159  163.3001 N.ar    1  UNL1       -0.2282
      4 C         142.1399  139.1398  163.7104 C.ar    1  UNL1        0.0885
      5 C         142.2669  139.1767  165.2045 C.ar    1  UNL1        0.0580
      6 C         143.1257  138.2732  166.0390 C.3     1  UNL1        0.0517
      7 C         140.6695  141.8295  171.4688 C.3     1  UNL1        0.0521
      8 C         140.8482  141.4411  170.0311 C.ar    1  UNL1        0.0595
      9 C         139.8230  140.5809  169.3536 C.ar    1  UNL1        0.0162
     10 C         140.0018  140.1924  167.9158 C.ar    1  UNL1        0.0203
     11 C         141.2057  140.6641  167.1555 C.ar    1  UNL1        0.0842
     12 C         142.2309  141.5243  167.8330 C.ar    1  UNL1        0.1159
     13 N         142.0521  141.9127  169.2708 N.ar    1  UNL1       -0.2466
     14 C         139.7427  142.0614  164.5949 C.ar    1  UNL1        0.1261
     15 N         140.2244  143.4367  164.9513 N.ar    1  UNL1       -0.2399
     16 C         139.2551  144.5802  165.0054 C.ar    1  UNL1        0.0990
     17 C         137.8043  144.3486  164.7031 C.ar    1  UNL1        0.0215
     18 C         137.3227  142.9734  164.3468 C.ar    1  UNL1        0.0146
     19 C         138.2919  141.8299  164.2927 C.ar    1  UNL1        0.0783
     20 CL        137.8102  140.4547  163.9363 Cl      1  UNL1       -0.0806
     21 C         142.8494  138.1929  162.7884 C.3     1  UNL1        0.1163
     22 N         144.0847  138.6371  162.0626 N.3     1  UNL1       -0.2935
     23 H         143.9249  138.4567  161.0715 H       1  UNL1        0.1236
     24 C         144.5499  140.0587  162.1745 C.3     1  UNL1        0.0543
     25 C         144.3586  141.1326  161.1449 C.3     1  UNL1        0.0157
     26 C         144.9786  142.3937  161.6697 C.3     1  UNL1        0.0014
     27 C         145.5531  142.0991  163.0237 C.3     1  UNL1        0.0014
     28 C         145.2881  140.6560  163.3356 C.3     1  UNL1        0.0157
@<TRIPOS>BOND
     1     7     8    1
     2     8     9   ar
     3     9    10   ar
     4    10    11   ar
     5    11     1    1
     6     1     2   ar
     7     2    14    1
     8    14    15   ar
     9    15    16   ar
    10    16    17   ar
    11    17    18   ar
    12    18    19   ar
    13    19    20    1
    14     2     3   ar
    15     3     4   ar
    16     4    21    1
    17    21    22    1
    18    22    24    1
    19    24    25    1
    20    25    26    1
    21    26    27    1
    22    27    28    1
    23     4     5   ar
    24     5     6    1
    25    11    12   ar
    26    12    13   ar
    27    13     8   ar
    28     5     1   ar
    29    19    14   ar
    30    28    24    1
    31    22    23    1
@<TRIPOS>MOLECULE
*****
 28 31 0 0 0
SMALL
GASTEIGER

@<TRIPOS>ATOM
      1 N         140.7291  140.1513  165.2299 N.ar    1  UNL1       -0.2915
      2 C         141.5673  140.1561  163.9860 C.ar    1  UNL1        0.1658
      3 N         140.7991  139.4528  162.9066 N.ar    1  UNL1       -0.2282
      4 C         139.4860  139.0133  163.4834 C.ar    1  UNL1        0.0885
      5 C         139.4428  139.4450  164.9193 C.ar    1  UNL1        0.0580
      6 C         138.3118  139.2114  165.8764 C.3     1  UNL1        0.0517
      7 C         142.2537  142.5382  170.5194 C.3     1  UNL1        0.0521
      8 C         141.8725  141.9414  169.1970 C.ar    1  UNL1        0.0595
      9 C         141.0399  142.7302  168.2303 C.ar    1  UNL1        0.0162
     10 C         140.6588  142.1335  166.9080 C.ar    1  UNL1        0.0203
     11 C         141.1103  140.7480  166.5523 C.ar    1  UNL1        0.0842
     12 C         141.9429  139.9593  167.5190 C.ar    1  UNL1        0.1159
     13 N         142.3240  140.5560  168.8413 N.ar    1  UNL1       -0.2466
     14 C         142.9339  140.7585  163.8460 C.ar    1  UNL1        0.1261
     15 N         143.0989  142.1013  163.1980 N.ar    1  UNL1       -0.2399
     16 C         144.4655  142.7037  163.0581 C.ar    1  UNL1        0.0990
     17 C         145.6671  141.9634  163.5661 C.ar    1  UNL1        0.0215
     18 C         145.5021  140.6207  164.2140 C.ar    1  UNL1        0.0146
     19 C         144.1355  140.0183  164.3540 C.ar    1  UNL1        0.0783
     20 CL        143.9706  138.6755  165.0020 Cl      1  UNL1       -0.0806
     21 C         138.4059  138.2722  162.7526 C.3     1  UNL1        0.1163
     22 N         137.4665  139.0144  161.8489 N.3     1  UNL1       -0.2935
     23 H         136.5546  139.0121  162.3061 H       1  UNL1        0.1236
     24 C         137.7571  140.4363  161.4698 C.3     1  UNL1        0.0543
     25 C         137.5642  141.6392  162.3448 C.3     1  UNL1        0.0157
     26 C         137.9796  142.8513  161.5648 C.3     1  UNL1        0.0014
     27 C         138.4293  142.3974  160.2076 C.3     1  UNL1        0.0014
     28 C         138.2918  140.9048  160.1490 C.3     1  UNL1        0.0157
@<TRIPOS>BOND
     1     7     8    1
     2     8     9   ar
     3     9    10   ar
     4    10    11   ar
     5    11     1    1
     6     1     2   ar
     7     2    14    1
     8    14    15   ar
     9    15    16   ar
    10    16    17   ar
    11    17    18   ar
    12    18    19   ar
    13    19    20    1
    14     2     3   ar
    15     3     4   ar
    16     4    21    1
    17    21    22    1
    18    22    24    1
    19    24    25    1
    20    25    26    1
    21    26    27    1
    22    27    28    1
    23     4     5   ar
    24     5     6    1
    25    11    12   ar
    26    12    13   ar
    27    13     8   ar
    28     5     1   ar
    29    19    14   ar
    30    28    24    1
    31    22    23    1
@<TRIPOS>MOLECULE
*****
 28 31 0 0 0
SMALL
GASTEIGER

@<TRIPOS>ATOM
      1 N         141.2383  140.4210  160.8606 N.ar    1  UNL1       -0.2915
      2 C         141.5810  140.7064  162.2928 C.ar    1  UNL1        0.1658
      3 N         140.3263  140.5763  163.1044 N.ar    1  UNL1       -0.2282
      4 C         139.2081  140.2106  162.1739 C.ar    1  UNL1        0.0885
      5 C         139.7718  140.1147  160.7871 C.ar    1  UNL1        0.0580
      6 C         139.0037  139.7724  159.5450 C.3     1  UNL1        0.0517
      7 C         145.0623  140.4926  156.2375 C.3     1  UNL1        0.0521
      8 C         144.1063  140.4747  157.3933 C.ar    1  UNL1        0.0595
      9 C         143.4722  141.7508  157.8620 C.ar    1  UNL1        0.0162
     10 C         142.5162  141.7329  159.0178 C.ar    1  UNL1        0.0203
     11 C         142.1943  140.4389  159.7048 C.ar    1  UNL1        0.0842
     12 C         142.8284  139.1629  159.2361 C.ar    1  UNL1        0.1159
     13 N         143.7843  139.1808  158.0804 N.ar    1  UNL1       -0.2466
     14 C         142.9399  141.0597  162.8207 C.ar    1  UNL1        0.1261
     15 N         143.4132  142.4826  162.7811 N.ar    1  UNL1       -0.2399
     16 C         144.7721  142.8359  163.3090 C.ar    1  UNL1        0.0990
     17 C         145.6576  141.7665  163.8764 C.ar    1  UNL1        0.0215
     18 C         145.1843  140.3437  163.9160 C.ar    1  UNL1        0.0146
     19 C         143.8254  139.9903  163.3881 C.ar    1  UNL1        0.0783
     20 CL        143.3522  138.5674  163.4277 Cl      1  UNL1       -0.0806
     21 C         137.7775  139.9812  162.5619 C.3     1  UNL1        0.1163
     22 N         136.9064  141.1434  162.9368 N.3     1  UNL1       -0.2935
     23 H         136.3909  140.8675  163.7726 H       1  UNL1        0.1236
     24 C         137.5230  142.4790  163.2295 C.3     1  UNL1        0.0543
     25 C         137.9764  143.4831  162.2115 C.3     1  UNL1        0.0157
     26 C         138.5281  144.6698  162.9445 C.3     1  UNL1        0.0014
     27 C         138.4157  144.3992  164.4157 C.3     1  UNL1        0.0014
     28 C         137.7945  143.0452  164.5918 C.3     1  UNL1        0.0157
@<TRIPOS>BOND
     1     7     8    1
     2     8     9   ar
     3     9    10   ar
     4    10    11   ar
     5    11     1    1
     6     1     2   ar
     7     2    14    1
     8    14    15   ar
     9    15    16   ar
    10    16    17   ar
    11    17    18   ar
    12    18    19   ar
    13    19    20    1
    14     2     3   ar
    15     3     4   ar
    16     4    21    1
    17    21    22    1
    18    22    24    1
    19    24    25    1
    20    25    26    1
    21    26    27    1
    22    27    28    1
    23     4     5   ar
    24     5     6    1
    25    11    12   ar
    26    12    13   ar
    27    13     8   ar
    28     5     1   ar
    29    19    14   ar
    30    28    24    1
    31    22    23    1
@<TRIPOS>MOLECULE
*****
 28 31 0 0 0
SMALL
GASTEIGER

@<TRIPOS>ATOM
      1 N         141.9319  140.5283  165.5878 N.ar    1  UNL1       -0.2915
      2 C         141.3568  141.2206  164.3878 C.ar    1  UNL1        0.1658
      3 N         141.9203  140.5668  163.1610 N.ar    1  UNL1       -0.2282
      4 C         142.8437  139.4704  163.6028 C.ar    1  UNL1        0.0885
      5 C         142.8509  139.4466  165.1026 C.ar    1  UNL1        0.0580
      6 C         143.6388  138.5062  165.9657 C.3     1  UNL1        0.0517
      7 C         140.7619  141.8531  171.3215 C.3     1  UNL1        0.0521
      8 C         141.0544  141.5219  169.8881 C.ar    1  UNL1        0.0595
      9 C         140.2399  140.4820  169.1773 C.ar    1  UNL1        0.0162
     10 C         140.5324  140.1508  167.7439 C.ar    1  UNL1        0.0203
     11 C         141.6394  140.8595  167.0212 C.ar    1  UNL1        0.0842
     12 C         142.4539  141.8994  167.7320 C.ar    1  UNL1        0.1159
     13 N         142.1614  142.2306  169.1654 N.ar    1  UNL1       -0.2466
     14 C         140.3881  142.3657  164.4106 C.ar    1  UNL1        0.1261
     15 N         140.8844  143.7713  164.2429 N.ar    1  UNL1       -0.2399
     16 C         139.9157  144.9164  164.2657 C.ar    1  UNL1        0.0990
     17 C         138.4509  144.6559  164.4562 C.ar    1  UNL1        0.0215
     18 C         137.9547  143.2504  164.6239 C.ar    1  UNL1        0.0146
     19 C         138.9233  142.1053  164.6011 C.ar    1  UNL1        0.0783
     20 CL        138.4269  140.6997  164.7688 Cl      1  UNL1       -0.0806
     21 C         143.6232  138.5580  162.7028 C.3     1  UNL1        0.1163
     22 N         142.9032  137.6355  161.7644 N.3     1  UNL1       -0.2935
     23 H         142.9142  136.7107  162.1944 H       1  UNL1        0.1236
     24 C         141.4810  137.9173  161.3799 C.3     1  UNL1        0.0543
     25 C         140.2689  137.6364  162.2177 C.3     1  UNL1        0.0157
     26 C         139.0599  138.0750  161.4456 C.3     1  UNL1        0.0014
     27 C         139.5249  138.6268  160.1305 C.3     1  UNL1        0.0014
     28 C         141.0212  138.5294  160.0899 C.3     1  UNL1        0.0157
@<TRIPOS>BOND
     1     7     8    1
     2     8     9   ar
     3     9    10   ar
     4    10    11   ar
     5    11     1    1
     6     1     2   ar
     7     2    14    1
     8    14    15   ar
     9    15    16   ar
    10    16    17   ar
    11    17    18   ar
    12    18    19   ar
    13    19    20    1
    14     2     3   ar
    15     3     4   ar
    16     4    21    1
    17    21    22    1
    18    22    24    1
    19    24    25    1
    20    25    26    1
    21    26    27    1
    22    27    28    1
    23     4     5   ar
    24     5     6    1
    25    11    12   ar
    26    12    13   ar
    27    13     8   ar
    28     5     1   ar
    29    19    14   ar
    30    28    24    1
    31    22    23    1
@<TRIPOS>MOLECULE
*****
 28 31 0 0 0
SMALL
GASTEIGER

@<TRIPOS>ATOM
      1 N         140.5485  142.9251  164.9670 N.ar    1  UNL1       -0.2915
      2 C         141.5826  142.5881  163.9340 C.ar    1  UNL1        0.1658
      3 N         141.4324  143.5533  162.7956 N.ar    1  UNL1       -0.2282
      4 C         140.3054  144.4868  163.1251 C.ar    1  UNL1        0.0885
      5 C         139.7591  144.0985  164.4670 C.ar    1  UNL1        0.0580
      6 C         138.6230  144.7664  165.1833 C.3     1  UNL1        0.0517
      7 C         139.7157  140.0790  170.1830 C.3     1  UNL1        0.0521
      8 C         139.9239  140.7905  168.8790 C.ar    1  UNL1        0.0595
      9 C         140.6178  142.1201  168.8525 C.ar    1  UNL1        0.0162
     10 C         140.8260  142.8316  167.5485 C.ar    1  UNL1        0.0203
     11 C         140.3403  142.2136  166.2710 C.ar    1  UNL1        0.0842
     12 C         139.6464  140.8840  166.2975 C.ar    1  UNL1        0.1159
     13 N         139.4382  140.1725  167.6015 N.ar    1  UNL1       -0.2466
     14 C         142.5901  141.4805  164.0237 C.ar    1  UNL1        0.1261
     15 N         142.1561  140.0556  163.8456 N.ar    1  UNL1       -0.2399
     16 C         143.1636  138.9480  163.9353 C.ar    1  UNL1        0.0990
     17 C         144.6051  139.2651  164.2029 C.ar    1  UNL1        0.0215
     18 C         145.0390  140.6898  164.3810 C.ar    1  UNL1        0.0146
     19 C         144.0315  141.7975  164.2913 C.ar    1  UNL1        0.0783
     20 CL        144.4656  143.2223  164.4694 Cl      1  UNL1       -0.0806
     21 C         139.8114  145.6111  162.2638 C.3     1  UNL1        0.1163
     22 N         140.6059  146.0444  161.0675 N.3     1  UNL1       -0.2935
     23 H         141.5843  146.0640  161.3552 H       1  UNL1        0.1236
     24 C         140.5438  145.2487  159.7976 C.3     1  UNL1        0.0543
     25 C         139.8005  143.9609  159.5995 C.3     1  UNL1        0.0157
     26 C         140.0114  143.5173  158.1822 C.3     1  UNL1        0.0014
     27 C         140.8850  144.5309  157.5043 C.3     1  UNL1        0.0014
     28 C         141.2140  145.6009  158.5027 C.3     1  UNL1        0.0157
@<TRIPOS>BOND
     1     7     8    1
     2     8     9   ar
     3     9    10   ar
     4    10    11   ar
     5    11     1    1
     6     1     2   ar
     7     2    14    1
     8    14    15   ar
     9    15    16   ar
    10    16    17   ar
    11    17    18   ar
    12    18    19   ar
    13    19    20    1
    14     2     3   ar
    15     3     4   ar
    16     4    21    1
    17    21    22    1
    18    22    24    1
    19    24    25    1
    20    25    26    1
    21    26    27    1
    22    27    28    1
    23     4     5   ar
    24     5     6    1
    25    11    12   ar
    26    12    13   ar
    27    13     8   ar
    28     5     1   ar
    29    19    14   ar
    30    28    24    1
    31    22    23    1
