@<TRIPOS>MOLECULE
*****
 33 35 0 0 0
SMALL
GASTEIGER

@<TRIPOS>ATOM
      1 N         138.4203  137.3105  162.5055 N.pl3   1  UNL1       -0.3287
      2 C         139.7304  138.0405  162.4798 C.ar    1  UNL1        0.1959
      3 N         141.0906  137.4142  162.5677 N.ar    1  UNL1       -0.2123
      4 C         142.1113  138.5116  162.5039 C.ar    1  UNL1        0.1184
      5 C         143.6105  138.4914  162.5453 C.ar    1  UNL1        0.0271
      6 C         144.3804  139.7759  162.4594 C.ar    1  UNL1        0.0594
      7 C         143.6510  141.0804  162.3322 C.ar    1  UNL1        0.2265
      8 N         142.1518  141.1005  162.2908 N.ar    1  UNL1       -0.1926
      9 C         141.3819  139.8161  162.3767 C.ar    1  UNL1        0.1668
     10 N         139.9105  139.5249  162.3618 N.ar    1  UNL1       -0.2824
     11 H         138.4049  136.3294  162.5862 H       1  UNL1        0.1451
     12 H         137.5758  137.8124  162.4416 H       1  UNL1        0.1451
     13 O         144.4210  142.3649  162.2464 O.3     1  UNL1       -0.4509
     14 C         144.1449  143.4714  163.2207 C.3     1  UNL1        0.3095
     15 C         144.1539  143.1926  164.6946 C.3     1  UNL1        0.4381
     16 F         144.1629  142.9138  166.1684 F       1  UNL1       -0.1663
     17 F         142.7996  143.8247  164.8224 F       1  UNL1       -0.1663
     18 F         145.5081  142.5605  164.5667 F       1  UNL1       -0.1663
     19 C         138.8120  140.5401  162.2487 C.3     1  UNL1        0.1438
     20 C         137.9575  140.8564  163.4402 C.3     1  UNL1        0.1561
     21 O         136.5670  141.3848  163.2469 O.3     1  UNL1       -0.3780
     22 H         136.1551  141.5354  164.1121 H       1  UNL1        0.2109
     23 C         138.4933  140.6443  164.8251 C.ar    1  UNL1        0.0167
     24 C         138.1087  139.4179  165.5984 C.ar    1  UNL1       -0.0011
     25 C         138.6445  139.2058  166.9833 C.ar    1  UNL1        0.0037
     26 C         139.5649  140.2201  167.5949 C.ar    1  UNL1        0.0722
     27 C         139.9496  141.4464  166.8215 C.ar    1  UNL1        0.0150
     28 C         139.4137  141.6585  165.4366 C.ar    1  UNL1        0.0559
     29 CL        139.7983  142.8849  164.6633 Cl      1  UNL1       -0.0825
     30 C         140.1008  140.0080  168.9798 C.3     1  UNL1        0.4186
     31 F         140.6366  139.7960  170.3647 F       1  UNL1       -0.1659
     32 F         138.7626  140.3696  169.5529 F       1  UNL1       -0.1659
     33 F         141.4390  139.6465  168.4066 F       1  UNL1       -0.1659
@<TRIPOS>BOND
     1     1     2    1
     2     2     3   ar
     3     3     4   ar
     4     4     5   ar
     5     5     6   ar
     6     6     7   ar
     7     7    13    1
     8    13    14    1
     9    14    15    1
    10    15    16    1
    11    15    17    1
    12    15    18    1
    13     7     8   ar
    14     8     9   ar
    15     9    10   ar
    16    10    19    1
    17    19    20    1
    18    20    21    1
    19    20    23    1
    20    23    24   ar
    21    24    25   ar
    22    25    26   ar
    23    26    30    1
    24    30    31    1
    25    30    32    1
    26    30    33    1
    27    26    27   ar
    28    27    28   ar
    29    28    29    1
    30    10     2   ar
    31    28    23   ar
    32     9     4   ar
    33     1    11    1
    34     1    12    1
    35    21    22    1
@<TRIPOS>MOLECULE
*****
 33 35 0 0 0
SMALL
GASTEIGER

@<TRIPOS>ATOM
      1 N         143.9774  145.4245  162.7435 N.pl3   1  UNL1       -0.3287
      2 C         142.6868  144.7839  163.1607 C.ar    1  UNL1        0.1959
      3 N         141.4256  145.5043  163.5353 N.ar    1  UNL1       -0.2123
      4 C         140.3901  144.4760  163.8826 C.ar    1  UNL1        0.1184
      5 C         138.9618  144.5992  164.3238 C.ar    1  UNL1        0.0271
      6 C         138.1548  143.3665  164.6051 C.ar    1  UNL1        0.0594
      7 C         138.7761  142.0106  164.4451 C.ar    1  UNL1        0.2265
      8 N         140.2044  141.8875  164.0039 N.ar    1  UNL1       -0.1926
      9 C         141.0114  143.1202  163.7226 C.ar    1  UNL1        0.1668
     10 N         142.4308  143.3105  163.2764 N.ar    1  UNL1       -0.2824
     11 H         144.0477  146.4054  162.6975 H       1  UNL1        0.1451
     12 H         144.7541  144.8641  162.5157 H       1  UNL1        0.1451
     13 O         137.9691  140.7779  164.7264 O.3     1  UNL1       -0.4509
     14 C         138.2981  139.9205  165.9124 C.3     1  UNL1        0.3095
     15 C         138.4951  138.4436  165.7386 C.3     1  UNL1        0.4381
     16 F         138.6921  136.9668  165.5649 F       1  UNL1       -0.1663
     17 F         137.3490  138.1811  166.6700 F       1  UNL1       -0.1663
     18 F         139.6412  138.7061  164.8073 F       1  UNL1       -0.1663
     19 C         143.4205  142.2189  162.9954 C.3     1  UNL1        0.1438
     20 C         144.2589  141.6620  164.1075 C.3     1  UNL1        0.1561
     21 O         145.7498  141.5896  163.9588 O.3     1  UNL1       -0.3780
     22 H         146.1367  141.2074  164.7621 H       1  UNL1        0.2109
     23 C         143.6066  141.1775  165.3683 C.ar    1  UNL1        0.0167
     24 C         143.3510  142.1334  166.4957 C.ar    1  UNL1       -0.0011
     25 C         142.6987  141.6489  167.7565 C.ar    1  UNL1        0.0037
     26 C         142.3019  140.2086  167.8900 C.ar    1  UNL1        0.0722
     27 C         142.5574  139.2527  166.7627 C.ar    1  UNL1        0.0150
     28 C         143.2098  139.7372  165.5018 C.ar    1  UNL1        0.0559
     29 CL        143.4653  138.7813  164.3745 Cl      1  UNL1       -0.0825
     30 C         141.6495  139.7240  169.1509 C.3     1  UNL1        0.4186
     31 F         140.9971  139.2394  170.4116 F       1  UNL1       -0.1659
     32 F         140.3166  139.7289  168.4630 F       1  UNL1       -0.1659
     33 F         142.9825  139.7191  169.8386 F       1  UNL1       -0.1659
@<TRIPOS>BOND
     1     1     2    1
     2     2     3   ar
     3     3     4   ar
     4     4     5   ar
     5     5     6   ar
     6     6     7   ar
     7     7    13    1
     8    13    14    1
     9    14    15    1
    10    15    16    1
    11    15    17    1
    12    15    18    1
    13     7     8   ar
    14     8     9   ar
    15     9    10   ar
    16    10    19    1
    17    19    20    1
    18    20    21    1
    19    20    23    1
    20    23    24   ar
    21    24    25   ar
    22    25    26   ar
    23    26    30    1
    24    30    31    1
    25    30    32    1
    26    30    33    1
    27    26    27   ar
    28    27    28   ar
    29    28    29    1
    30    10     2   ar
    31    28    23   ar
    32     9     4   ar
    33     1    11    1
    34     1    12    1
    35    21    22    1
@<TRIPOS>MOLECULE
*****
 33 35 0 0 0
SMALL
GASTEIGER

@<TRIPOS>ATOM
      1 N         138.0477  137.6901  161.8637 N.pl3   1  UNL1       -0.3287
      2 C         139.4324  138.2570  161.9697 C.ar    1  UNL1        0.1959
      3 N         140.7050  137.4668  162.0479 N.ar    1  UNL1       -0.2123
      4 C         141.8468  138.4351  162.1426 C.ar    1  UNL1        0.1184
      5 C         143.3294  138.2317  162.2442 C.ar    1  UNL1        0.0271
      6 C         144.2451  139.4169  162.3262 C.ar    1  UNL1        0.0594
      7 C         143.6781  140.8055  162.3066 C.ar    1  UNL1        0.2265
      8 N         142.1954  141.0089  162.2050 N.ar    1  UNL1       -0.1926
      9 C         141.2798  139.8236  162.1230 C.ar    1  UNL1        0.1668
     10 N         139.7876  139.7136  162.0161 N.ar    1  UNL1       -0.2824
     11 H         137.9156  136.7148  161.8401 H       1  UNL1        0.1451
     12 H         137.2710  138.2933  161.8178 H       1  UNL1        0.1451
     13 O         144.5938  141.9908  162.3886 O.3     1  UNL1       -0.4509
     14 C         144.7271  142.7479  163.6766 C.3     1  UNL1        0.3095
     15 C         143.7692  143.8568  163.9973 C.3     1  UNL1        0.4381
     16 F         142.8113  144.9656  164.3181 F       1  UNL1       -0.1663
     17 F         144.2702  144.6317  162.8148 F       1  UNL1       -0.1663
     18 F         143.2682  143.0819  165.1799 F       1  UNL1       -0.1663
     19 C         138.8205  140.8590  161.9647 C.3     1  UNL1        0.1438
     20 C         138.0743  141.2666  163.2003 C.3     1  UNL1        0.1561
     21 O         136.5748  141.3083  163.1915 O.3     1  UNL1       -0.3780
     22 H         136.2540  141.5896  164.0626 H       1  UNL1        0.2109
     23 C         138.8273  141.6325  164.4450 C.ar    1  UNL1        0.0167
     24 C         139.4157  143.0047  164.5895 C.ar    1  UNL1       -0.0011
     25 C         140.1687  143.3706  165.8341 C.ar    1  UNL1        0.0037
     26 C         140.3333  142.3643  166.9342 C.ar    1  UNL1        0.0722
     27 C         139.7449  140.9921  166.7897 C.ar    1  UNL1        0.0150
     28 C         138.9919  140.6262  165.5451 C.ar    1  UNL1        0.0559
     29 CL        138.4035  139.2541  165.4006 Cl      1  UNL1       -0.0825
     30 C         141.0864  142.7301  168.1789 C.3     1  UNL1        0.4186
     31 F         141.8393  143.0960  169.4236 F       1  UNL1       -0.1659
     32 F         140.0246  143.7309  168.5270 F       1  UNL1       -0.1659
     33 F         142.1480  141.7294  167.8307 F       1  UNL1       -0.1659
@<TRIPOS>BOND
     1     1     2    1
     2     2     3   ar
     3     3     4   ar
     4     4     5   ar
     5     5     6   ar
     6     6     7   ar
     7     7    13    1
     8    13    14    1
     9    14    15    1
    10    15    16    1
    11    15    17    1
    12    15    18    1
    13     7     8   ar
    14     8     9   ar
    15     9    10   ar
    16    10    19    1
    17    19    20    1
    18    20    21    1
    19    20    23    1
    20    23    24   ar
    21    24    25   ar
    22    25    26   ar
    23    26    30    1
    24    30    31    1
    25    30    32    1
    26    30    33    1
    27    26    27   ar
    28    27    28   ar
    29    28    29    1
    30    10     2   ar
    31    28    23   ar
    32     9     4   ar
    33     1    11    1
    34     1    12    1
    35    21    22    1
@<TRIPOS>MOLECULE
*****
 33 35 0 0 0
SMALL
GASTEIGER

@<TRIPOS>ATOM
      1 N         137.3426  144.4092  162.4672 N.pl3   1  UNL1       -0.3287
      2 C         137.9824  143.0617  162.6248 C.ar    1  UNL1        0.1959
      3 N         137.2609  141.7555  162.7769 N.ar    1  UNL1       -0.2123
      4 C         138.2887  140.6703  162.9041 C.ar    1  UNL1        0.1184
      5 C         138.1644  139.1855  163.0774 C.ar    1  UNL1        0.0271
      6 C         139.3968  138.3364  163.1772 C.ar    1  UNL1        0.0594
      7 C         140.7535  138.9719  163.1037 C.ar    1  UNL1        0.2265
      8 N         140.8778  140.4567  162.9304 N.ar    1  UNL1       -0.1926
      9 C         139.6454  141.3058  162.8306 C.ar    1  UNL1        0.1668
     10 N         139.4561  142.7838  162.6580 N.ar    1  UNL1       -0.2824
     11 H         136.3615  144.4902  162.4572 H       1  UNL1        0.1451
     12 H         137.9038  145.2127  162.3737 H       1  UNL1        0.1451
     13 O         141.9860  138.1227  163.2035 O.3     1  UNL1       -0.4509
     14 C         143.2584  138.7077  163.7406 C.3     1  UNL1        0.3095
     15 C         143.6139  138.5297  165.1870 C.3     1  UNL1        0.4381
     16 F         143.9693  138.3517  166.6333 F       1  UNL1       -0.1663
     17 F         142.3834  137.6955  165.3868 F       1  UNL1       -0.1663
     18 F         144.8444  139.3639  164.9873 F       1  UNL1       -0.1663
     19 C         140.5487  143.8047  162.5394 C.3     1  UNL1        0.1438
     20 C         141.1623  144.3936  163.7749 C.3     1  UNL1        0.1561
     21 O         141.4121  145.8704  163.8576 O.3     1  UNL1       -0.3780
     22 H         141.8100  146.0834  164.7161 H       1  UNL1        0.2109
     23 C         141.5262  143.5058  164.9280 C.ar    1  UNL1        0.0167
     24 C         140.4949  143.1553  165.9593 C.ar    1  UNL1       -0.0011
     25 C         140.8588  142.2676  167.1123 C.ar    1  UNL1        0.0037
     26 C         142.2539  141.7302  167.2340 C.ar    1  UNL1        0.0722
     27 C         143.2852  142.0807  166.2027 C.ar    1  UNL1        0.0150
     28 C         142.9213  142.9685  165.0497 C.ar    1  UNL1        0.0559
     29 CL        143.9526  143.3189  164.0183 Cl      1  UNL1       -0.0825
     30 C         142.6179  140.8424  168.3870 C.3     1  UNL1        0.4186
     31 F         142.9819  139.9547  169.5401 F       1  UNL1       -0.1659
     32 F         143.5260  141.9098  168.9221 F       1  UNL1       -0.1659
     33 F         141.7098  139.7753  167.8519 F       1  UNL1       -0.1659
@<TRIPOS>BOND
     1     1     2    1
     2     2     3   ar
     3     3     4   ar
     4     4     5   ar
     5     5     6   ar
     6     6     7   ar
     7     7    13    1
     8    13    14    1
     9    14    15    1
    10    15    16    1
    11    15    17    1
    12    15    18    1
    13     7     8   ar
    14     8     9   ar
    15     9    10   ar
    16    10    19    1
    17    19    20    1
    18    20    21    1
    19    20    23    1
    20    23    24   ar
    21    24    25   ar
    22    25    26   ar
    23    26    30    1
    24    30    31    1
    25    30    32    1
    26    30    33    1
    27    26    27   ar
    28    27    28   ar
    29    28    29    1
    30    10     2   ar
    31    28    23   ar
    32     9     4   ar
    33     1    11    1
    34     1    12    1
    35    21    22    1
@<TRIPOS>MOLECULE
*****
 33 35 0 0 0
SMALL
GASTEIGER

@<TRIPOS>ATOM
      1 N         144.4853  138.5820  161.6670 N.pl3   1  UNL1       -0.3287
      2 C         143.9257  139.9244  162.0344 C.ar    1  UNL1        0.1959
      3 N         144.7148  141.1850  162.2301 N.ar    1  UNL1       -0.2123
      4 C         143.7557  142.2816  162.5872 C.ar    1  UNL1        0.1184
      5 C         143.9621  143.7355  162.8929 C.ar    1  UNL1        0.0271
      6 C         142.7866  144.6066  163.2235 C.ar    1  UNL1        0.0594
      7 C         141.4047  144.0237  163.2484 C.ar    1  UNL1        0.2265
      8 N         141.1982  142.5698  162.9428 N.ar    1  UNL1       -0.1926
      9 C         142.3738  141.6987  162.6122 C.ar    1  UNL1        0.1668
     10 N         142.4789  140.2420  162.2705 N.ar    1  UNL1       -0.2824
     11 H         145.4544  138.4728  161.5323 H       1  UNL1        0.1451
     12 H         143.8834  137.8102  161.5606 H       1  UNL1        0.1451
     13 O         140.2291  144.8949  163.5791 O.3     1  UNL1       -0.4509
     14 C         139.4062  144.6122  164.8008 C.3     1  UNL1        0.3095
     15 C         138.4039  143.4962  164.7882 C.3     1  UNL1        0.4381
     16 F         137.4017  142.3802  164.7757 F       1  UNL1       -0.1663
     17 F         137.5134  144.3060  163.8931 F       1  UNL1       -0.1663
     18 F         139.2943  142.6864  165.6834 F       1  UNL1       -0.1663
     19 C         141.3375  139.2729  162.1807 C.3     1  UNL1        0.1438
     20 C         141.0847  138.3060  163.2992 C.3     1  UNL1        0.1561
     21 O         141.2496  136.8330  163.0690 O.3     1  UNL1       -0.3780
     22 H         141.0491  136.3533  163.8880 H       1  UNL1        0.2109
     23 C         140.6669  138.8121  164.6481 C.ar    1  UNL1        0.0167
     24 C         139.2111  138.9786  164.9688 C.ar    1  UNL1       -0.0011
     25 C         138.7934  139.4847  166.3177 C.ar    1  UNL1        0.0037
     26 C         139.8315  139.8243  167.3458 C.ar    1  UNL1        0.0722
     27 C         141.2873  139.6578  167.0251 C.ar    1  UNL1        0.0150
     28 C         141.7050  139.1517  165.6762 C.ar    1  UNL1        0.0559
     29 CL        143.1608  138.9853  165.3555 Cl      1  UNL1       -0.0825
     30 C         139.4138  140.3304  168.6947 C.3     1  UNL1        0.4186
     31 F         138.9963  140.8366  170.0436 F       1  UNL1       -0.1659
     32 F         140.6893  141.1133  168.7958 F       1  UNL1       -0.1659
     33 F         138.1384  139.5475  168.5935 F       1  UNL1       -0.1659
@<TRIPOS>BOND
     1     1     2    1
     2     2     3   ar
     3     3     4   ar
     4     4     5   ar
     5     5     6   ar
     6     6     7   ar
     7     7    13    1
     8    13    14    1
     9    14    15    1
    10    15    16    1
    11    15    17    1
    12    15    18    1
    13     7     8   ar
    14     8     9   ar
    15     9    10   ar
    16    10    19    1
    17    19    20    1
    18    20    21    1
    19    20    23    1
    20    23    24   ar
    21    24    25   ar
    22    25    26   ar
    23    26    30    1
    24    30    31    1
    25    30    32    1
    26    30    33    1
    27    26    27   ar
    28    27    28   ar
    29    28    29    1
    30    10     2   ar
    31    28    23   ar
    32     9     4   ar
    33     1    11    1
    34     1    12    1
    35    21    22    1
@<TRIPOS>MOLECULE
*****
 33 35 0 0 0
SMALL
GASTEIGER

@<TRIPOS>ATOM
      1 N         141.5041  145.9902  163.2639 N.pl3   1  UNL1       -0.3287
      2 C         142.1010  144.6148  163.3078 C.ar    1  UNL1        0.1959
      3 N         143.5608  144.2905  163.4261 N.ar    1  UNL1       -0.2123
      4 C         143.7049  142.7974  163.4325 C.ar    1  UNL1        0.1184
      5 C         144.9072  141.9056  163.5277 C.ar    1  UNL1        0.0271
      6 C         144.7388  140.4152  163.5085 C.ar    1  UNL1        0.0594
      7 C         143.3682  139.8167  163.3940 C.ar    1  UNL1        0.2265
      8 N         142.1659  140.7086  163.2989 N.ar    1  UNL1       -0.1926
      9 C         142.3343  142.1989  163.3181 C.ar    1  UNL1        0.1668
     10 N         141.3430  143.3221  163.2410 N.ar    1  UNL1       -0.2824
     11 H         142.0873  146.7817  163.3146 H       1  UNL1        0.1451
     12 H         140.5291  146.1013  163.1845 H       1  UNL1        0.1451
     13 O         143.1998  138.3263  163.3748 O.3     1  UNL1       -0.4509
     14 C         141.8793  137.7255  162.9939 C.3     1  UNL1        0.3095
     15 C         140.8698  137.3992  164.0544 C.3     1  UNL1        0.4381
     16 F         139.8605  137.0730  165.1148 F       1  UNL1       -0.1663
     17 F         139.7989  137.3108  163.0078 F       1  UNL1       -0.1663
     18 F         141.9407  137.4877  165.1009 F       1  UNL1       -0.1663
     19 C         139.8550  143.1779  163.1187 C.3     1  UNL1        0.1438
     20 C         139.0055  143.0953  164.3521 C.3     1  UNL1        0.1561
     21 O         137.6931  143.8196  164.4087 O.3     1  UNL1       -0.3780
     22 H         137.2741  143.6627  165.2694 H       1  UNL1        0.2109
     23 C         139.4682  142.2886  165.5290 C.ar    1  UNL1        0.0167
     24 C         140.3091  142.9290  166.5933 C.ar    1  UNL1       -0.0011
     25 C         140.7719  142.1223  167.7701 C.ar    1  UNL1        0.0037
     26 C         140.3937  140.6751  167.8827 C.ar    1  UNL1        0.0722
     27 C         139.5528  140.0347  166.8184 C.ar    1  UNL1        0.0150
     28 C         139.0901  140.8414  165.6415 C.ar    1  UNL1        0.0559
     29 CL        138.2492  140.2010  164.5772 Cl      1  UNL1       -0.0825
     30 C         140.8564  139.8683  169.0596 C.3     1  UNL1        0.4186
     31 F         141.3191  139.0615  170.2365 F       1  UNL1       -0.1659
     32 F         139.4989  140.0005  169.6839 F       1  UNL1       -0.1659
     33 F         142.2138  139.7361  168.4353 F       1  UNL1       -0.1659
@<TRIPOS>BOND
     1     1     2    1
     2     2     3   ar
     3     3     4   ar
     4     4     5   ar
     5     5     6   ar
     6     6     7   ar
     7     7    13    1
     8    13    14    1
     9    14    15    1
    10    15    16    1
    11    15    17    1
    12    15    18    1
    13     7     8   ar
    14     8     9   ar
    15     9    10   ar
    16    10    19    1
    17    19    20    1
    18    20    21    1
    19    20    23    1
    20    23    24   ar
    21    24    25   ar
    22    25    26   ar
    23    26    30    1
    24    30    31    1
    25    30    32    1
    26    30    33    1
    27    26    27   ar
    28    27    28   ar
    29    28    29    1
    30    10     2   ar
    31    28    23   ar
    32     9     4   ar
    33     1    11    1
    34     1    12    1
    35    21    22    1
@<TRIPOS>MOLECULE
*****
 33 35 0 0 0
SMALL
GASTEIGER

@<TRIPOS>ATOM
      1 N         139.1112  145.9258  161.8731 N.pl3   1  UNL1       -0.3287
      2 C         140.3498  145.0975  161.7003 C.ar    1  UNL1        0.1959
      3 N         140.9512  144.6727  160.3934 N.ar    1  UNL1       -0.2123
      4 C         142.1776  143.8613  160.6894 C.ar    1  UNL1        0.1184
      5 C         143.1719  143.1824  159.7948 C.ar    1  UNL1        0.0271
      6 C         144.3229  142.4269  160.3901 C.ar    1  UNL1        0.0594
      7 C         144.4796  142.3503  161.8799 C.ar    1  UNL1        0.2265
      8 N         143.4852  143.0292  162.7745 N.ar    1  UNL1       -0.1926
      9 C         142.3343  143.7847  162.1793 C.ar    1  UNL1        0.1668
     10 N         141.2046  144.5487  162.8040 N.ar    1  UNL1       -0.2824
     11 H         138.6157  146.2411  161.0830 H       1  UNL1        0.1451
     12 H         138.7938  146.1540  162.7767 H       1  UNL1        0.1451
     13 O         145.6306  141.5947  162.4752 O.3     1  UNL1       -0.4509
     14 C         145.5935  141.1857  163.9178 C.3     1  UNL1        0.3095
     15 C         144.5197  140.2599  164.4076 C.3     1  UNL1        0.4381
     16 F         143.4459  139.3340  164.8973 F       1  UNL1       -0.1663
     17 F         144.0923  141.2874  165.4132 F       1  UNL1       -0.1663
     18 F         144.9470  139.2323  163.4019 F       1  UNL1       -0.1663
     19 C         140.9709  144.7318  164.2743 C.3     1  UNL1        0.1438
     20 C         139.6591  144.3304  164.8809 C.3     1  UNL1        0.1561
     21 O         138.6531  145.3789  165.2538 O.3     1  UNL1       -0.3780
     22 H         137.8669  144.9532  165.6300 H       1  UNL1        0.2109
     23 C         139.3531  142.8807  165.1147 C.ar    1  UNL1        0.0167
     24 C         140.0579  142.1321  166.2069 C.ar    1  UNL1       -0.0011
     25 C         139.7519  140.6823  166.4407 C.ar    1  UNL1        0.0037
     26 C         138.7411  139.9812  165.5823 C.ar    1  UNL1        0.0722
     27 C         138.0364  140.7299  164.4902 C.ar    1  UNL1        0.0150
     28 C         138.3424  142.1796  164.2564 C.ar    1  UNL1        0.0559
     29 CL        137.6376  142.9282  163.1642 Cl      1  UNL1       -0.0825
     30 C         138.4351  138.5315  165.8161 C.3     1  UNL1        0.4186
     31 F         138.1290  137.0818  166.0499 F       1  UNL1       -0.1659
     32 F         137.3998  138.9139  166.8319 F       1  UNL1       -0.1659
     33 F         139.4704  138.1492  164.8003 F       1  UNL1       -0.1659
@<TRIPOS>BOND
     1     1     2    1
     2     2     3   ar
     3     3     4   ar
     4     4     5   ar
     5     5     6   ar
     6     6     7   ar
     7     7    13    1
     8    13    14    1
     9    14    15    1
    10    15    16    1
    11    15    17    1
    12    15    18    1
    13     7     8   ar
    14     8     9   ar
    15     9    10   ar
    16    10    19    1
    17    19    20    1
    18    20    21    1
    19    20    23    1
    20    23    24   ar
    21    24    25   ar
    22    25    26   ar
    23    26    30    1
    24    30    31    1
    25    30    32    1
    26    30    33    1
    27    26    27   ar
    28    27    28   ar
    29    28    29    1
    30    10     2   ar
    31    28    23   ar
    32     9     4   ar
    33     1    11    1
    34     1    12    1
    35    21    22    1
@<TRIPOS>MOLECULE
*****
 33 35 0 0 0
SMALL
GASTEIGER

@<TRIPOS>ATOM
      1 N         146.2090  141.8001  163.4735 N.pl3   1  UNL1       -0.3287
      2 C         144.8409  142.3997  163.3363 C.ar    1  UNL1        0.1959
      3 N         144.3391  143.6228  164.0450 N.ar    1  UNL1       -0.2123
      4 C         142.9224  143.8604  163.6130 C.ar    1  UNL1        0.1184
      5 C         141.9245  144.9177  163.9820 C.ar    1  UNL1        0.0271
      6 C         140.5528  144.8987  163.3754 C.ar    1  UNL1        0.0594
      7 C         140.1790  143.8224  162.3997 C.ar    1  UNL1        0.2265
      8 N         141.1769  142.7651  162.0307 N.ar    1  UNL1       -0.1926
      9 C         142.5486  142.7841  162.6374 C.ar    1  UNL1        0.1668
     10 N         143.7343  141.8813  162.4664 N.ar    1  UNL1       -0.2824
     11 H         146.8704  142.2152  164.0731 H       1  UNL1        0.1451
     12 H         146.4455  140.9916  162.9640 H       1  UNL1        0.1451
     13 O         138.8072  143.8035  161.7931 O.3     1  UNL1       -0.4509
     14 C         137.6137  143.4932  162.6471 C.3     1  UNL1        0.3095
     15 C         137.7056  142.4384  163.7097 C.3     1  UNL1        0.4381
     16 F         137.7975  141.3836  164.7721 F       1  UNL1       -0.1663
     17 F         137.5096  143.4853  164.7659 F       1  UNL1       -0.1663
     18 F         137.9016  141.3916  162.6534 F       1  UNL1       -0.1663
     19 C         143.8015  140.6724  161.5809 C.3     1  UNL1        0.1438
     20 C         143.5360  139.3103  162.1499 C.3     1  UNL1        0.1561
     21 O         144.4317  138.1609  161.7936 O.3     1  UNL1       -0.3780
     22 H         144.1225  137.3587  162.2428 H       1  UNL1        0.2109
     23 C         142.3747  139.0972  163.0751 C.ar    1  UNL1        0.0167
     24 C         140.9897  138.9487  162.5185 C.ar    1  UNL1       -0.0011
     25 C         139.8284  138.7357  163.4438 C.ar    1  UNL1        0.0037
     26 C         140.0522  138.6710  164.9256 C.ar    1  UNL1        0.0722
     27 C         141.4371  138.8194  165.4821 C.ar    1  UNL1        0.0150
     28 C         142.5984  139.0325  164.5569 C.ar    1  UNL1        0.0559
     29 CL        143.9834  139.1809  165.1135 Cl      1  UNL1       -0.0825
     30 C         138.8909  138.4579  165.8509 C.3     1  UNL1        0.4186
     31 F         137.7297  138.2449  166.7763 F       1  UNL1       -0.1659
     32 F         139.2980  139.6669  166.6400 F       1  UNL1       -0.1659
     33 F         138.4840  137.2490  165.0618 F       1  UNL1       -0.1659
@<TRIPOS>BOND
     1     1     2    1
     2     2     3   ar
     3     3     4   ar
     4     4     5   ar
     5     5     6   ar
     6     6     7   ar
     7     7    13    1
     8    13    14    1
     9    14    15    1
    10    15    16    1
    11    15    17    1
    12    15    18    1
    13     7     8   ar
    14     8     9   ar
    15     9    10   ar
    16    10    19    1
    17    19    20    1
    18    20    21    1
    19    20    23    1
    20    23    24   ar
    21    24    25   ar
    22    25    26   ar
    23    26    30    1
    24    30    31    1
    25    30    32    1
    26    30    33    1
    27    26    27   ar
    28    27    28   ar
    29    28    29    1
    30    10     2   ar
    31    28    23   ar
    32     9     4   ar
    33     1    11    1
    34     1    12    1
    35    21    22    1
@<TRIPOS>MOLECULE
*****
 33 35 0 0 0
SMALL
GASTEIGER

@<TRIPOS>ATOM
      1 N         144.6076  138.2613  161.6149 N.pl3   1  UNL1       -0.3287
      2 C         143.5022  138.4498  162.6112 C.ar    1  UNL1        0.1959
      3 N         142.1427  137.8190  162.5497 N.ar    1  UNL1       -0.2123
      4 C         141.3626  138.2816  163.7445 C.ar    1  UNL1        0.1184
      5 C         139.9666  137.9865  164.2073 C.ar    1  UNL1        0.0271
      6 C         139.4481  138.6081  165.4701 C.ar    1  UNL1        0.0594
      7 C         140.3254  139.5249  166.2700 C.ar    1  UNL1        0.2265
      8 N         141.7213  139.8200  165.8071 N.ar    1  UNL1       -0.1926
      9 C         142.2399  139.1983  164.5444 C.ar    1  UNL1        0.1668
     10 N         143.5623  139.3023  163.8440 N.ar    1  UNL1       -0.2824
     11 H         144.4717  137.6784  160.8333 H       1  UNL1        0.1451
     12 H         145.4690  138.7205  161.7426 H       1  UNL1        0.1451
     13 O         139.8068  140.1465  167.5328 O.3     1  UNL1       -0.4509
     14 C         140.7228  140.9573  168.4007 C.3     1  UNL1        0.3095
     15 C         140.4459  142.4139  168.6284 C.3     1  UNL1        0.4381
     16 F         140.1691  143.8705  168.8559 F       1  UNL1       -0.1663
     17 F         139.5743  142.0655  169.7983 F       1  UNL1       -0.1663
     18 F         141.3175  142.7624  167.4584 F       1  UNL1       -0.1663
     19 C         144.7382  140.1159  164.2969 C.3     1  UNL1        0.1438
     20 C         145.0594  141.4134  163.6162 C.3     1  UNL1        0.1561
     21 O         146.4717  141.7198  163.2140 O.3     1  UNL1       -0.3780
     22 H         146.5051  142.5915  162.7897 H       1  UNL1        0.2109
     23 C         143.9685  142.4045  163.3377 C.ar    1  UNL1        0.0167
     24 C         143.1149  142.2560  162.1132 C.ar    1  UNL1       -0.0011
     25 C         142.0240  143.2471  161.8347 C.ar    1  UNL1        0.0037
     26 C         141.7866  144.3867  162.7807 C.ar    1  UNL1        0.0722
     27 C         142.6401  144.5352  164.0052 C.ar    1  UNL1        0.0150
     28 C         143.7311  143.5441  164.2837 C.ar    1  UNL1        0.0559
     29 CL        144.5846  143.6926  165.5082 Cl      1  UNL1       -0.0825
     30 C         140.6956  145.3779  162.5023 C.3     1  UNL1        0.4186
     31 F         139.6047  146.3690  162.2240 F       1  UNL1       -0.1659
     32 F         140.2267  145.2604  163.9223 F       1  UNL1       -0.1659
     33 F         141.1647  145.4953  161.0824 F       1  UNL1       -0.1659
@<TRIPOS>BOND
     1     1     2    1
     2     2     3   ar
     3     3     4   ar
     4     4     5   ar
     5     5     6   ar
     6     6     7   ar
     7     7    13    1
     8    13    14    1
     9    14    15    1
    10    15    16    1
    11    15    17    1
    12    15    18    1
    13     7     8   ar
    14     8     9   ar
    15     9    10   ar
    16    10    19    1
    17    19    20    1
    18    20    21    1
    19    20    23    1
    20    23    24   ar
    21    24    25   ar
    22    25    26   ar
    23    26    30    1
    24    30    31    1
    25    30    32    1
    26    30    33    1
    27    26    27   ar
    28    27    28   ar
    29    28    29    1
    30    10     2   ar
    31    28    23   ar
    32     9     4   ar
    33     1    11    1
    34     1    12    1
    35    21    22    1
