@<TRIPOS>MOLECULE
*****
 30 31 0 0 0
SMALL
GASTEIGER

@<TRIPOS>ATOM
      1 C         140.6071  140.2741  168.3214 C.ar    1  UNL1        0.0176
      2 C         141.9727  139.8047  168.7273 C.ar    1  UNL1        0.0020
      3 C         142.8587  139.1215  167.7282 C.ar    1  UNL1        0.0373
      4 C         142.3791  138.9077  166.3231 C.ar    1  UNL1        0.1477
      5 C         141.0135  139.3771  165.9172 C.ar    1  UNL1        0.0668
      6 C         140.1275  140.0603  166.9164 C.ar    1  UNL1        0.1401
      7 F         138.7619  140.5297  166.5104 F       1  UNL1       -0.2044
      8 C         139.7211  140.9573  169.3206 C.3     1  UNL1        0.0939
      9 C         136.2813  138.7255  171.1744 C.3     1  UNL1        0.0900
     10 C         137.4279  139.4694  170.5565 C.1     1  UNL1       -0.0897
     11 C         138.5745  140.2133  169.9385 C.1     1  UNL1       -0.0871
     12 C         139.9817  142.3844  169.7018 C.3     1  UNL1        0.0591
     13 C         140.9123  142.7000  170.8351 C.2     1  UNL1        0.0517
     14 O         142.1078  143.5756  170.6023 O.co2   1  UNL1       -0.5491
     15 O         140.6474  142.1400  172.2012 O.co2   1  UNL1       -0.5491
     16 O         143.2651  138.2245  165.3240 O.3     1  UNL1       -0.4504
     17 C         143.4100  138.7878  163.9414 C.ar    1  UNL1        0.1791
     18 C         144.4331  139.8502  163.6678 C.ar    1  UNL1        0.0406
     19 C         144.5781  140.4135  162.2852 C.ar    1  UNL1        0.0072
     20 C         143.7000  139.9145  161.1761 C.ar    1  UNL1        0.0746
     21 C         142.6769  138.8522  161.4497 C.ar    1  UNL1        0.0441
     22 C         142.5319  138.2888  162.8324 C.ar    1  UNL1        0.1785
     23 C         143.8450  140.4779  159.7935 C.3     1  UNL1        0.4187
     24 F         143.9900  141.0412  158.4109 F       1  UNL1       -0.1659
     25 F         144.3573  141.7638  160.3711 F       1  UNL1       -0.1659
     26 F         143.3327  139.1919  159.2158 F       1  UNL1       -0.1659
     27 O         141.5089  137.2266  163.1059 O.3     1  UNL1       -0.4205
     28 C         140.0571  137.4982  162.8439 C.3     1  UNL1        0.5087
     29 F         139.5804  137.7402  161.4424 F       1  UNL1       -0.1550
     30 F         139.0821  137.5279  163.9834 F       1  UNL1       -0.1550
@<TRIPOS>UNITY_ATOM_ATTR
14 1
charge -1
@<TRIPOS>BOND
     1     9    10    1
     2    10    11    3
     3    11     8    1
     4     8    12    1
     5    12    13    1
     6    13    14   ar
     7    13    15   ar
     8     8     1    1
     9     1     2   ar
    10     2     3   ar
    11     3     4   ar
    12     4    16    1
    13    16    17    1
    14    17    18   ar
    15    18    19   ar
    16    19    20   ar
    17    20    23    1
    18    23    24    1
    19    23    25    1
    20    23    26    1
    21    20    21   ar
    22    21    22   ar
    23    22    27    1
    24    27    28    1
    25    28    29    1
    26    28    30    1
    27     4     5   ar
    28     5     6   ar
    29     6     7    1
    30     6     1   ar
    31    22    17   ar
@<TRIPOS>MOLECULE
*****
 30 31 0 0 0
SMALL
GASTEIGER

@<TRIPOS>ATOM
      1 C         141.3789  139.9750  168.4831 C.ar    1  UNL1        0.0176
      2 C         141.6428  140.0351  167.0077 C.ar    1  UNL1        0.0020
      3 C         140.4981  139.9979  166.0390 C.ar    1  UNL1        0.0373
      4 C         139.0897  139.9006  166.5456 C.ar    1  UNL1        0.1477
      5 C         138.8258  139.8405  168.0210 C.ar    1  UNL1        0.0668
      6 C         139.9705  139.8777  168.9897 C.ar    1  UNL1        0.1401
      7 F         139.7066  139.8177  170.4651 F       1  UNL1       -0.2044
      8 C         142.5236  140.0123  169.4518 C.3     1  UNL1        0.0939
      9 C         144.0856  136.1883  171.2371 C.3     1  UNL1        0.0900
     10 C         143.5649  137.4630  170.6420 C.1     1  UNL1       -0.0897
     11 C         143.0442  138.7377  170.0469 C.1     1  UNL1       -0.0871
     12 C         143.1475  141.3241  169.8254 C.3     1  UNL1        0.0591
     13 C         142.3980  142.2910  170.6934 C.2     1  UNL1        0.0517
     14 O         142.5066  143.7655  170.4408 O.co2   1  UNL1       -0.5491
     15 O         141.5398  141.7832  171.8141 O.co2   1  UNL1       -0.5491
     16 O         137.9451  139.8633  165.5769 O.3     1  UNL1       -0.4504
     17 C         138.0841  140.5018  164.2267 C.ar    1  UNL1        0.1791
     18 C         137.9318  141.9868  164.0800 C.ar    1  UNL1        0.0406
     19 C         138.0709  142.6253  162.7298 C.ar    1  UNL1        0.0072
     20 C         138.3622  141.7788  161.5263 C.ar    1  UNL1        0.0746
     21 C         138.5145  140.2938  161.6730 C.ar    1  UNL1        0.0441
     22 C         138.3755  139.6552  163.0232 C.ar    1  UNL1        0.1785
     23 C         138.5013  142.4173  160.1761 C.3     1  UNL1        0.4187
     24 F         138.6403  143.0557  158.8259 F       1  UNL1       -0.1659
     25 F         139.0641  143.6509  160.8174 F       1  UNL1       -0.1659
     26 F         137.9386  141.1836  159.5348 F       1  UNL1       -0.1659
     27 O         138.5278  138.1702  163.1698 O.3     1  UNL1       -0.4205
     28 C         139.8952  137.5639  163.2814 C.3     1  UNL1        0.5087
     29 F         140.3861  137.0592  164.6059 F       1  UNL1       -0.1550
     30 F         140.7718  137.4623  162.0685 F       1  UNL1       -0.1550
@<TRIPOS>UNITY_ATOM_ATTR
14 1
charge -1
@<TRIPOS>BOND
     1     9    10    1
     2    10    11    3
     3    11     8    1
     4     8    12    1
     5    12    13    1
     6    13    14   ar
     7    13    15   ar
     8     8     1    1
     9     1     2   ar
    10     2     3   ar
    11     3     4   ar
    12     4    16    1
    13    16    17    1
    14    17    18   ar
    15    18    19   ar
    16    19    20   ar
    17    20    23    1
    18    23    24    1
    19    23    25    1
    20    23    26    1
    21    20    21   ar
    22    21    22   ar
    23    22    27    1
    24    27    28    1
    25    28    29    1
    26    28    30    1
    27     4     5   ar
    28     5     6   ar
    29     6     7    1
    30     6     1   ar
    31    22    17   ar
@<TRIPOS>MOLECULE
*****
 30 31 0 0 0
SMALL
GASTEIGER

@<TRIPOS>ATOM
      1 C         142.5513  139.9849  168.4987 C.ar    1  UNL1        0.0176
      2 C         142.6886  139.1867  167.2362 C.ar    1  UNL1        0.0020
      3 C         143.0884  139.8652  165.9596 C.ar    1  UNL1        0.0373
      4 C         143.3509  141.3420  165.9455 C.ar    1  UNL1        0.1477
      5 C         143.2136  142.1402  167.2080 C.ar    1  UNL1        0.0668
      6 C         142.8138  141.4617  168.4846 C.ar    1  UNL1        0.1401
      7 F         142.6766  142.2600  169.7471 F       1  UNL1       -0.2044
      8 C         142.1516  139.3064  169.7754 C.3     1  UNL1        0.0939
      9 C         144.5335  135.8088  171.3061 C.3     1  UNL1        0.0900
     10 C         143.7396  136.9747  170.7958 C.1     1  UNL1       -0.0897
     11 C         142.9455  138.1406  170.2856 C.1     1  UNL1       -0.0871
     12 C         140.9578  139.7937  170.5418 C.3     1  UNL1        0.0591
     13 C         139.7874  140.3830  169.8119 C.2     1  UNL1        0.0517
     14 O         139.2252  141.7061  170.2402 O.co2   1  UNL1       -0.5491
     15 O         139.1790  139.6491  168.6537 O.co2   1  UNL1       -0.5491
     16 O         143.7506  142.0205  164.6688 O.3     1  UNL1       -0.4504
     17 C         142.8019  142.9653  163.9927 C.ar    1  UNL1        0.1791
     18 C         143.0137  144.4463  164.1012 C.ar    1  UNL1        0.0406
     19 C         142.0649  145.3911  163.4250 C.ar    1  UNL1        0.0072
     20 C         140.9044  144.8550  162.6403 C.ar    1  UNL1        0.0746
     21 C         140.6926  143.3740  162.5318 C.ar    1  UNL1        0.0441
     22 C         141.6414  142.4291  163.2080 C.ar    1  UNL1        0.1785
     23 C         139.9557  145.7998  161.9642 C.3     1  UNL1        0.4187
     24 F         139.0069  146.7447  161.2880 F       1  UNL1       -0.1659
     25 F         140.8984  145.9158  160.8033 F       1  UNL1       -0.1659
     26 F         139.0129  145.6839  163.1250 F       1  UNL1       -0.1659
     27 O         141.4296  140.9481  163.0995 O.3     1  UNL1       -0.4205
     28 C         142.2599  140.1396  162.1471 C.3     1  UNL1        0.5087
     29 F         143.4995  139.4489  162.6330 F       1  UNL1       -0.1550
     30 F         141.8504  140.0217  160.7090 F       1  UNL1       -0.1550
@<TRIPOS>UNITY_ATOM_ATTR
14 1
charge -1
@<TRIPOS>BOND
     1     9    10    1
     2    10    11    3
     3    11     8    1
     4     8    12    1
     5    12    13    1
     6    13    14   ar
     7    13    15   ar
     8     8     1    1
     9     1     2   ar
    10     2     3   ar
    11     3     4   ar
    12     4    16    1
    13    16    17    1
    14    17    18   ar
    15    18    19   ar
    16    19    20   ar
    17    20    23    1
    18    23    24    1
    19    23    25    1
    20    23    26    1
    21    20    21   ar
    22    21    22   ar
    23    22    27    1
    24    27    28    1
    25    28    29    1
    26    28    30    1
    27     4     5   ar
    28     5     6   ar
    29     6     7    1
    30     6     1   ar
    31    22    17   ar
@<TRIPOS>MOLECULE
*****
 30 31 0 0 0
SMALL
GASTEIGER

@<TRIPOS>ATOM
      1 C         142.0668  139.5102  168.4905 C.ar    1  UNL1        0.0176
      2 C         143.0156  139.1145  167.3983 C.ar    1  UNL1        0.0020
      3 C         142.6169  139.2803  165.9618 C.ar    1  UNL1        0.0373
      4 C         141.2693  139.8419  165.6175 C.ar    1  UNL1        0.1477
      5 C         140.3205  140.2377  166.7097 C.ar    1  UNL1        0.0668
      6 C         140.7192  140.0719  168.1462 C.ar    1  UNL1        0.1401
      7 F         139.7703  140.4677  169.2385 F       1  UNL1       -0.2044
      8 C         142.4655  139.3444  169.9270 C.3     1  UNL1        0.0939
      9 C         144.5348  135.5800  171.2676 C.3     1  UNL1        0.0900
     10 C         143.8451  136.8348  170.8207 C.1     1  UNL1       -0.0897
     11 C         143.1553  138.0896  170.3738 C.1     1  UNL1       -0.0871
     12 C         142.1745  140.4333  170.9167 C.3     1  UNL1        0.0591
     13 C         142.5297  141.8545  170.5941 C.2     1  UNL1        0.0517
     14 O         143.8469  142.1707  169.9499 O.co2   1  UNL1       -0.5491
     15 O         141.5677  142.9596  170.9159 O.co2   1  UNL1       -0.5491
     16 O         140.8706  140.0078  164.1810 O.3     1  UNL1       -0.4504
     17 C         140.5573  141.3722  163.6423 C.ar    1  UNL1        0.1791
     18 C         139.1844  141.6751  163.1195 C.ar    1  UNL1        0.0406
     19 C         138.8711  143.0395  162.5808 C.ar    1  UNL1        0.0072
     20 C         139.9307  144.1010  162.5649 C.ar    1  UNL1        0.0746
     21 C         141.3036  143.7982  163.0878 C.ar    1  UNL1        0.0441
     22 C         141.6170  142.4337  163.6265 C.ar    1  UNL1        0.1785
     23 C         139.6174  145.4655  162.0262 C.3     1  UNL1        0.4187
     24 F         139.3040  146.8299  161.4875 F       1  UNL1       -0.1659
     25 F         141.0136  145.5741  161.4890 F       1  UNL1       -0.1659
     26 F         138.2211  145.3569  162.5635 F       1  UNL1       -0.1659
     27 O         142.9899  142.1309  164.1493 O.3     1  UNL1       -0.4205
     28 C         143.5135  142.8623  165.3497 C.3     1  UNL1        0.5087
     29 F         143.0446  142.4824  166.7229 F       1  UNL1       -0.1550
     30 F         144.5060  143.9736  165.1768 F       1  UNL1       -0.1550
@<TRIPOS>UNITY_ATOM_ATTR
14 1
charge -1
@<TRIPOS>BOND
     1     9    10    1
     2    10    11    3
     3    11     8    1
     4     8    12    1
     5    12    13    1
     6    13    14   ar
     7    13    15   ar
     8     8     1    1
     9     1     2   ar
    10     2     3   ar
    11     3     4   ar
    12     4    16    1
    13    16    17    1
    14    17    18   ar
    15    18    19   ar
    16    19    20   ar
    17    20    23    1
    18    23    24    1
    19    23    25    1
    20    23    26    1
    21    20    21   ar
    22    21    22   ar
    23    22    27    1
    24    27    28    1
    25    28    29    1
    26    28    30    1
    27     4     5   ar
    28     5     6   ar
    29     6     7    1
    30     6     1   ar
    31    22    17   ar
@<TRIPOS>MOLECULE
*****
 30 31 0 0 0
SMALL
GASTEIGER

@<TRIPOS>ATOM
      1 C         141.2907  140.0446  168.0509 C.ar    1  UNL1        0.0176
      2 C         141.6097  140.0266  166.5854 C.ar    1  UNL1        0.0020
      3 C         140.5025  139.9320  165.5779 C.ar    1  UNL1        0.0373
      4 C         139.0762  139.8553  166.0359 C.ar    1  UNL1        0.1477
      5 C         138.7572  139.8733  167.5014 C.ar    1  UNL1        0.0668
      6 C         139.8644  139.9679  168.5089 C.ar    1  UNL1        0.1401
      7 F         139.5453  139.9859  169.9746 F       1  UNL1       -0.2044
      8 C         142.3979  140.1393  169.0585 C.3     1  UNL1        0.0939
      9 C         143.9106  136.4226  171.0951 C.3     1  UNL1        0.0900
     10 C         143.4064  137.6615  170.4163 C.1     1  UNL1       -0.0897
     11 C         142.9021  138.9004  169.7373 C.1     1  UNL1       -0.0871
     12 C         143.0009  141.4728  169.3871 C.3     1  UNL1        0.0591
     13 C         142.5132  142.2434  170.5781 C.2     1  UNL1        0.0517
     14 O         142.9278  143.6724  170.7678 O.co2   1  UNL1       -0.5491
     15 O         141.6108  141.5850  171.5792 O.co2   1  UNL1       -0.5491
     16 O         137.9690  139.7606  165.0284 O.3     1  UNL1       -0.4504
     17 C         138.1137  140.4232  163.6905 C.ar    1  UNL1        0.1791
     18 C         138.2848  139.5895  162.4552 C.ar    1  UNL1        0.0406
     19 C         138.4295  140.2520  161.1173 C.ar    1  UNL1        0.0072
     20 C         138.4032  141.7483  161.0146 C.ar    1  UNL1        0.0746
     21 C         138.2322  142.5820  162.2497 C.ar    1  UNL1        0.0441
     22 C         138.0875  141.9194  163.5877 C.ar    1  UNL1        0.1785
     23 C         138.5479  142.4108  159.6766 C.3     1  UNL1        0.4187
     24 F         138.6927  143.0734  158.3387 F       1  UNL1       -0.1659
     25 F         137.9110  141.2225  159.0192 F       1  UNL1       -0.1659
     26 F         139.1849  143.5992  160.3340 F       1  UNL1       -0.1659
     27 O         137.9165  142.7531  164.8229 O.3     1  UNL1       -0.4205
     28 C         139.0276  143.6500  165.2822 C.3     1  UNL1        0.5087
     29 F         140.0011  143.1684  166.3169 F       1  UNL1       -0.1550
     30 F         139.1654  145.0283  164.7069 F       1  UNL1       -0.1550
@<TRIPOS>UNITY_ATOM_ATTR
14 1
charge -1
@<TRIPOS>BOND
     1     9    10    1
     2    10    11    3
     3    11     8    1
     4     8    12    1
     5    12    13    1
     6    13    14   ar
     7    13    15   ar
     8     8     1    1
     9     1     2   ar
    10     2     3   ar
    11     3     4   ar
    12     4    16    1
    13    16    17    1
    14    17    18   ar
    15    18    19   ar
    16    19    20   ar
    17    20    23    1
    18    23    24    1
    19    23    25    1
    20    23    26    1
    21    20    21   ar
    22    21    22   ar
    23    22    27    1
    24    27    28    1
    25    28    29    1
    26    28    30    1
    27     4     5   ar
    28     5     6   ar
    29     6     7    1
    30     6     1   ar
    31    22    17   ar
@<TRIPOS>MOLECULE
*****
 30 31 0 0 0
SMALL
GASTEIGER

@<TRIPOS>ATOM
      1 C         140.7378  140.3326  168.0707 C.ar    1  UNL1        0.0176
      2 C         140.2184  140.1671  166.6733 C.ar    1  UNL1        0.0020
      3 C         141.0494  139.4617  165.6429 C.ar    1  UNL1        0.0373
      4 C         142.3999  138.9217  166.0098 C.ar    1  UNL1        0.1477
      5 C         142.9193  139.0872  167.4072 C.ar    1  UNL1        0.0668
      6 C         142.0882  139.7926  168.4377 C.ar    1  UNL1        0.1401
      7 F         142.6077  139.9581  169.8351 F       1  UNL1       -0.2044
      8 C         139.9067  141.0380  169.1011 C.3     1  UNL1        0.0939
      9 C         136.4813  138.8944  171.0813 C.3     1  UNL1        0.0900
     10 C         137.6231  139.6089  170.4212 C.1     1  UNL1       -0.0897
     11 C         138.7649  140.3235  169.7611 C.1     1  UNL1       -0.0871
     12 C         140.2175  142.4579  169.4714 C.3     1  UNL1        0.0591
     13 C         141.0165  142.7533  170.7061 C.2     1  UNL1        0.0517
     14 O         140.5896  142.1889  172.0286 O.co2   1  UNL1       -0.5491
     15 O         142.2425  143.6132  170.6181 O.co2   1  UNL1       -0.5491
     16 O         143.2309  138.2163  164.9794 O.3     1  UNL1       -0.4504
     17 C         143.3748  138.7991  163.6048 C.ar    1  UNL1        0.1791
     18 C         142.7728  138.0951  162.4249 C.ar    1  UNL1        0.0406
     19 C         142.9168  138.6778  161.0503 C.ar    1  UNL1        0.0072
     20 C         143.6627  139.9645  160.8554 C.ar    1  UNL1        0.0746
     21 C         144.2647  140.6685  162.0352 C.ar    1  UNL1        0.0441
     22 C         144.1208  140.0858  163.4100 C.ar    1  UNL1        0.1785
     23 C         143.8067  140.5472  159.4807 C.3     1  UNL1        0.4187
     24 F         143.9506  141.1300  158.1061 F       1  UNL1       -0.1659
     25 F         143.3978  139.2344  158.8814 F       1  UNL1       -0.1659
     26 F         144.2156  141.8601  160.0801 F       1  UNL1       -0.1659
     27 O         144.7228  140.7897  164.5898 O.3     1  UNL1       -0.4205
     28 C         144.1726  142.1123  165.0349 C.3     1  UNL1        0.5087
     29 F         143.2689  142.1848  166.2299 F       1  UNL1       -0.1550
     30 F         144.5261  143.3623  164.2851 F       1  UNL1       -0.1550
@<TRIPOS>UNITY_ATOM_ATTR
14 1
charge -1
@<TRIPOS>BOND
     1     9    10    1
     2    10    11    3
     3    11     8    1
     4     8    12    1
     5    12    13    1
     6    13    14   ar
     7    13    15   ar
     8     8     1    1
     9     1     2   ar
    10     2     3   ar
    11     3     4   ar
    12     4    16    1
    13    16    17    1
    14    17    18   ar
    15    18    19   ar
    16    19    20   ar
    17    20    23    1
    18    23    24    1
    19    23    25    1
    20    23    26    1
    21    20    21   ar
    22    21    22   ar
    23    22    27    1
    24    27    28    1
    25    28    29    1
    26    28    30    1
    27     4     5   ar
    28     5     6   ar
    29     6     7    1
    30     6     1   ar
    31    22    17   ar
@<TRIPOS>MOLECULE
*****
 30 31 0 0 0
SMALL
GASTEIGER

@<TRIPOS>ATOM
      1 C         142.4273  140.3417  167.5110 C.ar    1  UNL1        0.0176
      2 C         142.6206  139.3562  166.3968 C.ar    1  UNL1        0.0020
      3 C         143.1600  139.8153  165.0746 C.ar    1  UNL1        0.0373
      4 C         143.5061  141.2599  164.8665 C.ar    1  UNL1        0.1477
      5 C         143.3128  142.2454  165.9806 C.ar    1  UNL1        0.0668
      6 C         142.7734  141.7863  167.3029 C.ar    1  UNL1        0.1401
      7 F         142.5800  142.7719  168.4170 F       1  UNL1       -0.2044
      8 C         141.8879  139.8827  168.8332 C.3     1  UNL1        0.0939
      9 C         143.9848  136.6138  171.1063 C.3     1  UNL1        0.0900
     10 C         143.2858  137.7034  170.3486 C.1     1  UNL1       -0.0897
     11 C         142.5868  138.7931  169.5909 C.1     1  UNL1       -0.0871
     12 C         140.6495  140.5132  169.3977 C.3     1  UNL1        0.0591
     13 C         140.2872  140.2971  170.8372 C.2     1  UNL1        0.0517
     14 O         140.9328  141.1282  171.9060 O.co2   1  UNL1       -0.5491
     15 O         139.2792  139.2498  171.2078 O.co2   1  UNL1       -0.5491
     16 O         144.0455  141.7189  163.5443 O.3     1  UNL1       -0.4504
     17 C         143.1042  142.1515  162.4596 C.ar    1  UNL1        0.1791
     18 C         142.2081  141.1460  161.7991 C.ar    1  UNL1        0.0406
     19 C         141.2667  141.5785  160.7144 C.ar    1  UNL1        0.0072
     20 C         141.2213  143.0166  160.2901 C.ar    1  UNL1        0.0746
     21 C         142.1173  144.0220  160.9505 C.ar    1  UNL1        0.0441
     22 C         143.0588  143.5895  162.0353 C.ar    1  UNL1        0.1785
     23 C         140.2799  143.4491  159.2053 C.3     1  UNL1        0.4187
     24 F         139.3384  143.8816  158.1206 F       1  UNL1       -0.1659
     25 F         140.4640  144.8800  159.6159 F       1  UNL1       -0.1659
     26 F         140.0957  142.0182  158.7947 F       1  UNL1       -0.1659
     27 O         143.9548  144.5950  162.6957 O.3     1  UNL1       -0.4205
     28 C         143.5212  145.2666  163.9649 C.3     1  UNL1        0.5087
     29 F         144.4856  145.4102  165.1047 F       1  UNL1       -0.1550
     30 F         142.1232  145.7946  164.0943 F       1  UNL1       -0.1550
@<TRIPOS>UNITY_ATOM_ATTR
14 1
charge -1
@<TRIPOS>BOND
     1     9    10    1
     2    10    11    3
     3    11     8    1
     4     8    12    1
     5    12    13    1
     6    13    14   ar
     7    13    15   ar
     8     8     1    1
     9     1     2   ar
    10     2     3   ar
    11     3     4   ar
    12     4    16    1
    13    16    17    1
    14    17    18   ar
    15    18    19   ar
    16    19    20   ar
    17    20    23    1
    18    23    24    1
    19    23    25    1
    20    23    26    1
    21    20    21   ar
    22    21    22   ar
    23    22    27    1
    24    27    28    1
    25    28    29    1
    26    28    30    1
    27     4     5   ar
    28     5     6   ar
    29     6     7    1
    30     6     1   ar
    31    22    17   ar
@<TRIPOS>MOLECULE
*****
 30 31 0 0 0
SMALL
GASTEIGER

@<TRIPOS>ATOM
      1 C         141.3091  139.8416  168.7888 C.ar    1  UNL1        0.0176
      2 C         141.7964  139.7004  167.3772 C.ar    1  UNL1        0.0020
      3 C         140.8165  139.7044  166.2415 C.ar    1  UNL1        0.0373
      4 C         139.3493  139.8498  166.5174 C.ar    1  UNL1        0.1477
      5 C         138.8620  139.9910  167.9290 C.ar    1  UNL1        0.0668
      6 C         139.8419  139.9869  169.0647 C.ar    1  UNL1        0.1401
      7 F         139.3545  140.1281  170.4763 F       1  UNL1       -0.2044
      8 C         142.2890  139.8375  169.9244 C.3     1  UNL1        0.0939
      9 C         144.4057  136.0311  171.0562 C.3     1  UNL1        0.0900
     10 C         143.7001  137.2998  170.6789 C.1     1  UNL1       -0.0897
     11 C         142.9945  138.5687  170.3017 C.1     1  UNL1       -0.0871
     12 C         142.5634  141.1022  170.6828 C.3     1  UNL1        0.0591
     13 C         142.6549  142.4095  169.9531 C.2     1  UNL1        0.0517
     14 O         143.6514  142.5819  168.8453 O.co2   1  UNL1       -0.5491
     15 O         141.7498  143.5444  170.3311 O.co2   1  UNL1       -0.5491
     16 O         138.3693  139.8539  165.3817 O.3     1  UNL1       -0.4504
     17 C         138.8347  139.5502  163.9885 C.ar    1  UNL1        0.1791
     18 C         138.8362  138.1355  163.4898 C.ar    1  UNL1        0.0406
     19 C         139.3016  137.8319  162.0965 C.ar    1  UNL1        0.0072
     20 C         139.7655  138.9430  161.2019 C.ar    1  UNL1        0.0746
     21 C         139.7640  140.3576  161.7005 C.ar    1  UNL1        0.0441
     22 C         139.2986  140.6613  163.0939 C.ar    1  UNL1        0.1785
     23 C         140.2309  138.6393  159.8086 C.3     1  UNL1        0.4187
     24 F         140.6962  138.3357  158.4153 F       1  UNL1       -0.1659
     25 F         141.5296  138.1245  160.3546 F       1  UNL1       -0.1659
     26 F         138.9321  139.1541  159.2626 F       1  UNL1       -0.1659
     27 O         139.2971  142.0760  163.5925 O.3     1  UNL1       -0.4205
     28 C         138.0441  142.8970  163.5157 C.3     1  UNL1        0.5087
     29 F         137.3406  143.3113  164.7740 F       1  UNL1       -0.1550
     30 F         137.4946  143.3036  162.1806 F       1  UNL1       -0.1550
@<TRIPOS>UNITY_ATOM_ATTR
14 1
charge -1
@<TRIPOS>BOND
     1     9    10    1
     2    10    11    3
     3    11     8    1
     4     8    12    1
     5    12    13    1
     6    13    14   ar
     7    13    15   ar
     8     8     1    1
     9     1     2   ar
    10     2     3   ar
    11     3     4   ar
    12     4    16    1
    13    16    17    1
    14    17    18   ar
    15    18    19   ar
    16    19    20   ar
    17    20    23    1
    18    23    24    1
    19    23    25    1
    20    23    26    1
    21    20    21   ar
    22    21    22   ar
    23    22    27    1
    24    27    28    1
    25    28    29    1
    26    28    30    1
    27     4     5   ar
    28     5     6   ar
    29     6     7    1
    30     6     1   ar
    31    22    17   ar
@<TRIPOS>MOLECULE
*****
 30 31 0 0 0
SMALL
GASTEIGER

@<TRIPOS>ATOM
      1 C         142.0067  140.5267  168.0868 C.ar    1  UNL1        0.0176
      2 C         141.4429  139.9397  166.8268 C.ar    1  UNL1        0.0020
      3 C         141.7842  140.5469  165.4984 C.ar    1  UNL1        0.0373
      4 C         142.6894  141.7410  165.4298 C.ar    1  UNL1        0.1477
      5 C         143.2532  142.3279  166.6898 C.ar    1  UNL1        0.0668
      6 C         142.9119  141.7208  168.0183 C.ar    1  UNL1        0.1401
      7 F         143.4757  142.3078  169.2783 F       1  UNL1       -0.2044
      8 C         141.6653  139.9195  169.4153 C.3     1  UNL1        0.0939
      9 C         144.1127  136.5026  171.0231 C.3     1  UNL1        0.0900
     10 C         143.2970  137.6416  170.4871 C.1     1  UNL1       -0.0897
     11 C         142.4811  138.7806  169.9512 C.1     1  UNL1       -0.0871
     12 C         140.5082  140.4513  170.2078 C.3     1  UNL1        0.0591
     13 C         140.5651  141.8363  170.7811 C.2     1  UNL1        0.0517
     14 O         141.5138  142.1462  171.9008 O.co2   1  UNL1       -0.5491
     15 O         139.6733  142.9115  170.2344 O.co2   1  UNL1       -0.5491
     16 O         143.0308  142.3481  164.1014 O.3     1  UNL1       -0.4504
     17 C         141.9902  142.4287  163.0240 C.ar    1  UNL1        0.1791
     18 C         142.1321  141.6013  161.7808 C.ar    1  UNL1        0.0406
     19 C         141.0916  141.6818  160.7035 C.ar    1  UNL1        0.0072
     20 C         139.9092  142.5898  160.8691 C.ar    1  UNL1        0.0746
     21 C         139.7672  143.4172  162.1122 C.ar    1  UNL1        0.0441
     22 C         140.8078  143.3366  163.1897 C.ar    1  UNL1        0.1785
     23 C         138.8686  142.6703  159.7917 C.3     1  UNL1        0.4187
     24 F         137.8281  142.7508  158.7143 F       1  UNL1       -0.1659
     25 F         139.5566  143.8730  159.2171 F       1  UNL1       -0.1659
     26 F         138.1807  141.4676  160.3662 F       1  UNL1       -0.1659
     27 O         140.6659  144.1640  164.4327 O.3     1  UNL1       -0.4205
     28 C         139.6031  143.8315  165.4377 C.3     1  UNL1        0.5087
     29 F         139.9709  143.1424  166.7182 F       1  UNL1       -0.1550
     30 F         138.1724  144.1882  165.1621 F       1  UNL1       -0.1550
@<TRIPOS>UNITY_ATOM_ATTR
14 1
charge -1
@<TRIPOS>BOND
     1     9    10    1
     2    10    11    3
     3    11     8    1
     4     8    12    1
     5    12    13    1
     6    13    14   ar
     7    13    15   ar
     8     8     1    1
     9     1     2   ar
    10     2     3   ar
    11     3     4   ar
    12     4    16    1
    13    16    17    1
    14    17    18   ar
    15    18    19   ar
    16    19    20   ar
    17    20    23    1
    18    23    24    1
    19    23    25    1
    20    23    26    1
    21    20    21   ar
    22    21    22   ar
    23    22    27    1
    24    27    28    1
    25    28    29    1
    26    28    30    1
    27     4     5   ar
    28     5     6   ar
    29     6     7    1
    30     6     1   ar
    31    22    17   ar
