@<TRIPOS>MOLECULE
*****
 60 65 0 0 0
SMALL
GASTEIGER

@<TRIPOS>ATOM
      1 C         140.4244  143.2286  163.9906 C.2     1  UNL1        0.1235
      2 C         141.5522  142.2424  163.9143 C.2     1  UNL1        0.1026
      3 C         141.6630  141.3194  162.7372 C.3     1  UNL1        0.1481
      4 O         142.7907  140.3333  162.6610 O.3     1  UNL1       -0.3789
      5 C         140.6461  141.3824  161.6363 C.3     1  UNL1        0.0450
      6 C         141.7738  140.3963  161.5601 C.3     1  UNL1        0.0068
      7 C         140.7569  140.4593  160.4592 C.2     1  UNL1       -0.0400
      8 C         141.8847  139.4732  160.3830 C.2     1  UNL1        0.0290
      9 C         141.9955  138.5501  159.2059 C.2     1  UNL1        0.1721
     10 O         143.1233  137.5640  159.1296 O.2     1  UNL1       -0.2914
     11 C         140.9786  138.6131  158.1050 C.3     1  UNL1        0.0627
     12 C         141.0895  137.6900  156.9278 C.3     1  UNL1        0.0173
     13 C         142.2172  136.7039  156.8516 C.3     1  UNL1        0.0010
     14 C         142.3280  135.7809  155.6745 C.3     1  UNL1        0.0000
     15 C         142.8556  134.7063  154.7707 C.3     1  UNL1        0.0000
     16 C         143.5282  135.3446  156.4614 C.3     1  UNL1        0.0000
     17 C         141.3111  135.8439  154.5736 C.3     1  UNL1        0.0005
     18 C         140.1834  136.8299  154.6498 C.3     1  UNL1        0.0106
     19 C         140.0726  137.7530  155.8269 C.3     1  UNL1        0.0900
     20 C         138.9448  138.7391  155.9032 C.3     1  UNL1        0.0106
     21 C         138.8340  139.6622  157.0803 C.3     1  UNL1        0.0013
     22 C         139.8509  139.5992  158.1812 C.3     1  UNL1        0.0100
     23 C         138.7231  140.5853  158.2575 C.3     1  UNL1        0.0007
     24 C         139.7400  140.5223  159.3584 C.3     1  UNL1        0.0157
     25 C         139.6292  141.4454  160.5355 C.3     1  UNL1        0.0041
     26 C         138.6123  141.5084  159.4346 C.3     1  UNL1        0.0038
     27 C         138.5015  142.4315  160.6117 C.3     1  UNL1        0.0011
     28 C         139.5184  142.3685  161.7126 C.3     1  UNL1        0.0127
     29 C         139.4075  143.2916  162.8897 C.3     1  UNL1        0.0514
     30 C         138.8799  144.3662  163.7935 C.3     1  UNL1        0.0075
     31 C         138.2074  143.7278  162.1027 C.3     1  UNL1        0.0075
     32 H         143.3527  140.4235  163.4464 H       1  UNL1        0.2108
     33 C         142.5691  142.1794  165.0152 C.1     1  UNL1        0.1012
     34 N         143.5860  142.1164  166.1161 N.1     1  UNL1       -0.1910
     35 C         139.0557  137.8160  154.7261 C.2     1  UNL1        0.3160
     36 O         137.7227  137.1496  154.8973 O.2     1  UNL1       -0.2501
     37 O         139.3716  138.5454  153.4540 O.3     1  UNL1       -0.4444
     38 C         138.2805  138.8411  152.4681 C.3     1  UNL1        0.2556
     39 O         140.3136  144.1516  165.1677 O.2     1  UNL1       -0.4745
     40 C         139.4852  143.7575  166.3545 C.3     1  UNL1        0.2315
     41 C         140.9695  140.5861  169.1811 C.ar    1  UNL1        0.0503
     42 C         140.2383  140.1942  167.9314 C.ar    1  UNL1        0.0145
     43 C         139.7435  141.2514  166.9892 C.ar    1  UNL1        0.0006
     44 C         139.9800  142.7003  167.2967 C.ar    1  UNL1        0.0212
     45 C         140.7112  143.0922  168.5464 C.ar    1  UNL1        0.0006
     46 C         141.2059  142.0351  169.4886 C.ar    1  UNL1        0.0145
     47 C         142.6015  138.6379  169.7203 C.2     1  UNL1        0.2262
     48 O         143.2440  138.8039  168.3751 O.2     1  UNL1       -0.2748
     49 N         141.4642  139.5290  170.1233 N.am    1  UNL1       -0.2839
     50 H         141.0425  139.4201  171.0062 H       1  UNL1        0.1549
     51 C         143.0963  137.5808  170.6625 C.3     1  UNL1        0.0873
     52 C         144.2708  136.7283  170.2833 C.3     1  UNL1        0.0365
     53 C         145.0170  135.9674  171.3388 C.3     1  UNL1        0.1517
     54 N         144.5605  134.5956  171.7384 N.3     1  UNL1       -0.3134
     55 H         145.1785  134.2291  172.4625 H       1  UNL1        0.1193
     56 H         144.5852  133.9790  170.9263 H       1  UNL1        0.1193
     57 C         146.2199  136.5783  171.9946 C.2     1  UNL1        0.3312
     58 O         147.3714  137.0511  171.1577 O.2     1  UNL1       -0.2486
     59 C         147.0157  135.7058  174.3088 C.3     1  UNL1        0.2556
     60 O         146.2712  136.7162  173.4873 O.3     1  UNL1       -0.4435
@<TRIPOS>BOND
     1    59    60    1
     2    60    57    1
     3    57    58    2
     4    57    53    1
     5    53    54    1
     6    53    52    1
     7    52    51    1
     8    51    47    1
     9    47    48    2
    10    47    49   am
    11    49    41    1
    12    41    42   ar
    13    42    43   ar
    14    43    44   ar
    15    44    40    1
    16    40    39    1
    17    39     1    1
    18     1     2    2
    19     2    33    1
    20    33    34    3
    21     2     3    1
    22     3     4    1
    23     3     5    1
    24     5     6    1
    25     5     7    1
    26     7     8    2
    27     8     9    1
    28     9    10    2
    29    11     9    1
    30    11    12    1
    31    12    13    1
    32    13    14    1
    33    14    15    1
    34    14    16    1
    35    14    17    1
    36    17    18    1
    37    18    19    1
    38    19    35    1
    39    35    36    2
    40    35    37    1
    41    37    38    1
    42    19    20    1
    43    20    21    1
    44    21    22    1
    45    22    23    1
    46    22    24    1
    47    24    25    1
    48    24    26    1
    49    26    27    1
    50    28    27    1
    51    28    29    1
    52    29    30    1
    53    29    31    1
    54    44    45   ar
    55    45    46   ar
    56    46    41   ar
    57    29     1    1
    58    28     5    1
    59    24     7    1
    60    22    11    1
    61    19    12    1
    62    54    55    1
    63    54    56    1
    64    49    50    1
    65     4    32    1
@<TRIPOS>MOLECULE
*****
 60 65 0 0 0
SMALL
GASTEIGER

@<TRIPOS>ATOM
      1 C         141.8614  140.5849  154.8655 C.2     1  UNL1        0.1235
      2 C         142.4564  140.0342  156.1276 C.2     1  UNL1        0.1026
      3 C         142.7270  138.5639  156.2499 C.3     1  UNL1        0.1481
      4 O         143.3220  138.0132  157.5119 O.3     1  UNL1       -0.3789
      5 C         142.4025  137.6442  155.1102 C.3     1  UNL1        0.0450
      6 C         142.9975  137.0936  156.3722 C.3     1  UNL1        0.0068
      7 C         142.6730  136.1739  155.2325 C.2     1  UNL1       -0.0400
      8 C         143.2681  135.6232  156.4946 C.2     1  UNL1        0.0290
      9 C         143.5386  134.1529  156.6169 C.2     1  UNL1        0.1721
     10 O         144.1336  133.6022  157.8789 O.2     1  UNL1       -0.2914
     11 C         143.2141  133.2332  155.4772 C.3     1  UNL1        0.0627
     12 C         143.4847  131.7629  155.5995 C.3     1  UNL1        0.0173
     13 C         144.0797  131.2122  156.8615 C.3     1  UNL1        0.0010
     14 C         144.3502  129.7420  156.9838 C.3     1  UNL1        0.0000
     15 C         144.7860  128.4332  157.5730 C.3     1  UNL1        0.0000
     16 C         144.8260  130.2070  158.3282 C.3     1  UNL1        0.0000
     17 C         144.0257  128.8223  155.8441 C.3     1  UNL1        0.0005
     18 C         143.4307  129.3729  154.5821 C.3     1  UNL1        0.0106
     19 C         143.1602  130.8432  154.4598 C.3     1  UNL1        0.0900
     20 C         142.5651  131.3939  153.1977 C.3     1  UNL1        0.0106
     21 C         142.2946  132.8642  153.0754 C.3     1  UNL1        0.0013
     22 C         142.6191  133.7839  154.2151 C.3     1  UNL1        0.0100
     23 C         142.0240  134.3346  152.9531 C.3     1  UNL1        0.0007
     24 C         142.3485  135.2542  154.0928 C.3     1  UNL1        0.0157
     25 C         142.0780  136.7245  153.9705 C.3     1  UNL1        0.0041
     26 C         141.7535  135.8049  152.8308 C.3     1  UNL1        0.0038
     27 C         141.4830  137.2752  152.7085 C.3     1  UNL1        0.0011
     28 C         141.8075  138.1948  153.8482 C.3     1  UNL1        0.0127
     29 C         141.5369  139.6652  153.7258 C.3     1  UNL1        0.0514
     30 C         141.1011  140.9740  153.1367 C.3     1  UNL1        0.0075
     31 C         141.0611  139.2001  152.3815 C.3     1  UNL1        0.0075
     32 H         143.4692  138.7358  158.1421 H       1  UNL1        0.2108
     33 C         142.7809  140.9538  157.2673 C.1     1  UNL1        0.1012
     34 N         143.1054  141.8735  158.4070 N.1     1  UNL1       -0.1910
     35 C         142.8357  129.9236  153.3201 C.2     1  UNL1        0.3160
     36 O         143.8628  129.6493  152.2618 O.2     1  UNL1       -0.2501
     37 O         141.4841  129.2781  153.2386 O.3     1  UNL1       -0.4444
     38 C         141.1429  128.3967  152.0738 C.3     1  UNL1        0.2556
     39 O         141.5909  142.0552  154.7432 O.2     1  UNL1       -0.4745
     40 C         140.2891  142.6210  155.2280 C.3     1  UNL1        0.2315
     41 C         140.0015  144.3868  159.3572 C.ar    1  UNL1        0.0503
     42 C         140.6992  145.1424  158.2653 C.ar    1  UNL1        0.0145
     43 C         140.7950  144.5538  156.8888 C.ar    1  UNL1        0.0006
     44 C         140.1932  143.2096  156.6044 C.ar    1  UNL1        0.0212
     45 C         139.4956  142.4540  157.6963 C.ar    1  UNL1        0.0006
     46 C         139.3997  143.0425  159.0726 C.ar    1  UNL1        0.0145
     47 C         141.1004  144.9604  161.6404 C.2     1  UNL1        0.2262
     48 O         142.3909  144.3569  161.1709 O.2     1  UNL1       -0.2748
     49 N         139.9057  144.9753  160.7335 N.am    1  UNL1       -0.2839
     50 H         139.0587  145.3714  161.0416 H       1  UNL1        0.1549
     51 C         141.0045  145.5489  163.0168 C.3     1  UNL1        0.0873
     52 C         140.5661  144.6945  164.1690 C.3     1  UNL1        0.0365
     53 C         139.1166  144.6360  164.5504 C.3     1  UNL1        0.1517
     54 N         138.6352  145.3481  165.7797 N.3     1  UNL1       -0.3134
     55 H         137.6312  145.2026  165.8857 H       1  UNL1        0.1193
     56 H         138.8268  146.3460  165.6915 H       1  UNL1        0.1193
     57 C         138.1484  143.8655  163.7025 C.2     1  UNL1        0.3312
     58 O         137.6234  144.4641  162.4312 O.2     1  UNL1       -0.2486
     59 C         137.3419  141.4725  163.0915 C.3     1  UNL1        0.2556
     60 O         137.7053  142.4964  164.1258 O.3     1  UNL1       -0.4435
@<TRIPOS>BOND
     1    59    60    1
     2    60    57    1
     3    57    58    2
     4    57    53    1
     5    53    54    1
     6    53    52    1
     7    52    51    1
     8    51    47    1
     9    47    48    2
    10    47    49   am
    11    49    41    1
    12    41    42   ar
    13    42    43   ar
    14    43    44   ar
    15    44    40    1
    16    40    39    1
    17    39     1    1
    18     1     2    2
    19     2    33    1
    20    33    34    3
    21     2     3    1
    22     3     4    1
    23     3     5    1
    24     5     6    1
    25     5     7    1
    26     7     8    2
    27     8     9    1
    28     9    10    2
    29    11     9    1
    30    11    12    1
    31    12    13    1
    32    13    14    1
    33    14    15    1
    34    14    16    1
    35    14    17    1
    36    17    18    1
    37    18    19    1
    38    19    35    1
    39    35    36    2
    40    35    37    1
    41    37    38    1
    42    19    20    1
    43    20    21    1
    44    21    22    1
    45    22    23    1
    46    22    24    1
    47    24    25    1
    48    24    26    1
    49    26    27    1
    50    28    27    1
    51    28    29    1
    52    29    30    1
    53    29    31    1
    54    44    45   ar
    55    45    46   ar
    56    46    41   ar
    57    29     1    1
    58    28     5    1
    59    24     7    1
    60    22    11    1
    61    19    12    1
    62    54    55    1
    63    54    56    1
    64    49    50    1
    65     4    32    1
@<TRIPOS>MOLECULE
*****
 60 65 0 0 0
SMALL
GASTEIGER

@<TRIPOS>ATOM
      1 C         141.8503  143.7970  158.9918 C.2     1  UNL1        0.1235
      2 C         142.6242  142.5567  159.3275 C.2     1  UNL1        0.1026
      3 C         142.6353  142.0374  160.7347 C.3     1  UNL1        0.1481
      4 O         143.4092  140.7971  161.0703 O.3     1  UNL1       -0.3789
      5 C         141.8725  142.7584  161.8062 C.3     1  UNL1        0.0450
      6 C         142.6464  141.5181  162.1418 C.3     1  UNL1        0.0068
      7 C         141.8836  142.2391  163.2134 C.2     1  UNL1       -0.0400
      8 C         142.6576  140.9987  163.5491 C.2     1  UNL1        0.0290
      9 C         142.6687  140.4795  164.9562 C.2     1  UNL1        0.1721
     10 O         143.4426  139.2391  165.2919 O.2     1  UNL1       -0.2914
     11 C         141.9059  141.2005  166.0278 C.3     1  UNL1        0.0627
     12 C         141.9170  140.6811  167.4351 C.3     1  UNL1        0.0173
     13 C         142.6909  139.4408  167.7706 C.3     1  UNL1        0.0010
     14 C         142.7021  138.9216  169.1778 C.3     1  UNL1        0.0000
     15 C         143.0159  138.0463  170.3548 C.3     1  UNL1        0.0000
     16 C         143.5739  137.8965  168.5151 C.3     1  UNL1        0.0000
     17 C         141.9393  139.6426  170.2494 C.3     1  UNL1        0.0005
     18 C         141.1653  140.8829  169.9138 C.3     1  UNL1        0.0106
     19 C         141.1542  141.4021  168.5066 C.3     1  UNL1        0.0900
     20 C         140.3803  142.6425  168.1710 C.3     1  UNL1        0.0106
     21 C         140.3692  143.1618  166.7638 C.3     1  UNL1        0.0013
     22 C         141.1320  142.4408  165.6922 C.3     1  UNL1        0.0100
     23 C         140.3580  143.6811  165.3566 C.3     1  UNL1        0.0007
     24 C         141.1208  142.9601  164.2850 C.3     1  UNL1        0.0157
     25 C         141.1097  143.4794  162.8778 C.3     1  UNL1        0.0041
     26 C         140.3469  144.2004  163.9494 C.3     1  UNL1        0.0038
     27 C         140.3358  144.7197  162.5422 C.3     1  UNL1        0.0011
     28 C         141.0986  143.9987  161.4707 C.3     1  UNL1        0.0127
     29 C         141.0874  144.5180  160.0634 C.3     1  UNL1        0.0514
     30 C         140.7736  145.3933  158.8864 C.3     1  UNL1        0.0075
     31 C         140.2157  145.5430  160.7262 C.3     1  UNL1        0.0075
     32 H         143.8406  140.4587  160.2701 H       1  UNL1        0.2108
     33 C         143.3870  141.8357  158.2559 C.1     1  UNL1        0.1012
     34 N         144.1498  141.1146  157.1844 N.1     1  UNL1       -0.1910
     35 C         140.3914  142.1231  169.5782 C.2     1  UNL1        0.3160
     36 O         139.0541  141.6087  170.0222 O.2     1  UNL1       -0.2501
     37 O         140.9658  143.3585  170.2057 O.3     1  UNL1       -0.4444
     38 C         140.1188  144.5875  170.3544 C.3     1  UNL1        0.2556
     39 O         141.8391  144.3163  157.5847 O.2     1  UNL1       -0.4745
     40 C         141.3684  143.4369  156.4645 C.3     1  UNL1        0.2315
     41 C         137.3543  141.4192  156.7226 C.ar    1  UNL1        0.0503
     42 C         138.6064  140.6337  156.9782 C.ar    1  UNL1        0.0145
     43 C         139.9444  141.3063  156.8921 C.ar    1  UNL1        0.0006
     44 C         140.0303  142.7643  156.5505 C.ar    1  UNL1        0.0212
     45 C         138.7783  143.5498  156.2949 C.ar    1  UNL1        0.0006
     46 C         137.4403  142.8773  156.3809 C.ar    1  UNL1        0.0145
     47 C         135.2915  140.3556  155.5549 C.2     1  UNL1        0.2262
     48 O         135.9047  140.6370  154.2152 O.2     1  UNL1       -0.2748
     49 N         136.0163  140.7466  156.8086 N.am    1  UNL1       -0.2839
     50 H         135.6138  140.5619  157.6879 H       1  UNL1        0.1549
     51 C         133.9534  139.6830  155.6409 C.3     1  UNL1        0.0873
     52 C         132.9328  140.1670  156.6278 C.3     1  UNL1        0.0365
     53 C         132.3665  139.2217  157.6455 C.3     1  UNL1        0.1517
     54 N         133.2686  138.5830  158.6596 N.3     1  UNL1       -0.3134
     55 H         132.7199  137.9748  159.2675 H       1  UNL1        0.1193
     56 H         133.7177  139.3076  159.2195 H       1  UNL1        0.1193
     57 C         130.8981  138.9152  157.6492 C.2     1  UNL1        0.3312
     58 O         130.3326  137.9664  158.6641 O.2     1  UNL1       -0.2486
     59 C         128.9784  138.7308  155.9084 C.3     1  UNL1        0.2556
     60 O         129.9954  139.5575  156.6381 O.3     1  UNL1       -0.4435
@<TRIPOS>BOND
     1    59    60    1
     2    60    57    1
     3    57    58    2
     4    57    53    1
     5    53    54    1
     6    53    52    1
     7    52    51    1
     8    51    47    1
     9    47    48    2
    10    47    49   am
    11    49    41    1
    12    41    42   ar
    13    42    43   ar
    14    43    44   ar
    15    44    40    1
    16    40    39    1
    17    39     1    1
    18     1     2    2
    19     2    33    1
    20    33    34    3
    21     2     3    1
    22     3     4    1
    23     3     5    1
    24     5     6    1
    25     5     7    1
    26     7     8    2
    27     8     9    1
    28     9    10    2
    29    11     9    1
    30    11    12    1
    31    12    13    1
    32    13    14    1
    33    14    15    1
    34    14    16    1
    35    14    17    1
    36    17    18    1
    37    18    19    1
    38    19    35    1
    39    35    36    2
    40    35    37    1
    41    37    38    1
    42    19    20    1
    43    20    21    1
    44    21    22    1
    45    22    23    1
    46    22    24    1
    47    24    25    1
    48    24    26    1
    49    26    27    1
    50    28    27    1
    51    28    29    1
    52    29    30    1
    53    29    31    1
    54    44    45   ar
    55    45    46   ar
    56    46    41   ar
    57    29     1    1
    58    28     5    1
    59    24     7    1
    60    22    11    1
    61    19    12    1
    62    54    55    1
    63    54    56    1
    64    49    50    1
    65     4    32    1
@<TRIPOS>MOLECULE
*****
 60 65 0 0 0
SMALL
GASTEIGER

@<TRIPOS>ATOM
      1 C         141.4502  142.4398  163.6862 C.2     1  UNL1        0.1235
      2 C         140.1802  142.6858  162.9268 C.2     1  UNL1        0.1026
      3 C         139.9083  141.9352  161.6569 C.3     1  UNL1        0.1481
      4 O         138.6383  142.1813  160.8976 O.3     1  UNL1       -0.3789
      5 C         140.9063  140.9386  161.1464 C.3     1  UNL1        0.0450
      6 C         139.6364  141.1846  160.3871 C.3     1  UNL1        0.0068
      7 C         140.6344  140.1880  159.8765 C.2     1  UNL1       -0.0400
      8 C         139.3644  140.4340  159.1171 C.2     1  UNL1        0.0290
      9 C         139.0924  139.6834  157.8472 C.2     1  UNL1        0.1721
     10 O         137.8224  139.9295  157.0878 O.2     1  UNL1       -0.2914
     11 C         140.0904  138.6868  157.3367 C.3     1  UNL1        0.0627
     12 C         139.8184  137.9362  156.0668 C.3     1  UNL1        0.0173
     13 C         138.5485  138.1823  155.3074 C.3     1  UNL1        0.0010
     14 C         138.2766  137.4317  154.0376 C.3     1  UNL1        0.0000
     15 C         137.5732  136.9717  152.7951 C.3     1  UNL1        0.0000
     16 C         137.0342  138.2685  154.1165 C.3     1  UNL1        0.0000
     17 C         139.2746  136.4350  153.5270 C.3     1  UNL1        0.0005
     18 C         140.5445  136.1890  154.2863 C.3     1  UNL1        0.0106
     19 C         140.8165  136.9395  155.5562 C.3     1  UNL1        0.0900
     20 C         142.0865  136.6935  156.3156 C.3     1  UNL1        0.0106
     21 C         142.3584  137.4441  157.5855 C.3     1  UNL1        0.0013
     22 C         141.3604  138.4407  158.0960 C.3     1  UNL1        0.0100
     23 C         142.6304  138.1947  158.8554 C.3     1  UNL1        0.0007
     24 C         141.6324  139.1913  159.3660 C.3     1  UNL1        0.0157
     25 C         141.9043  139.9419  160.6359 C.3     1  UNL1        0.0041
     26 C         142.9023  138.9453  160.1253 C.3     1  UNL1        0.0038
     27 C         143.1743  139.6959  161.3952 C.3     1  UNL1        0.0011
     28 C         142.1763  140.6925  161.9057 C.3     1  UNL1        0.0127
     29 C         142.4482  141.4431  163.1757 C.3     1  UNL1        0.0514
     30 C         143.1516  141.9031  164.4181 C.3     1  UNL1        0.0075
     31 C         143.6905  140.6062  163.0966 C.3     1  UNL1        0.0075
     32 H         138.1090  142.8494  161.3607 H       1  UNL1        0.2108
     33 C         139.1822  143.6825  163.4374 C.1     1  UNL1        0.1012
     34 N         138.1842  144.6791  163.9479 N.1     1  UNL1       -0.1910
     35 C         141.8145  135.9429  155.0457 C.2     1  UNL1        0.3160
     36 O         142.9895  136.4055  154.2360 O.2     1  UNL1       -0.2501
     37 O         141.6375  134.4837  155.3447 O.3     1  UNL1       -0.4444
     38 C         142.7432  133.5165  155.0414 C.3     1  UNL1        0.2556
     39 O         141.7222  143.1904  164.9561 O.2     1  UNL1       -0.4745
     40 C         140.8417  142.9835  166.1527 C.3     1  UNL1        0.2315
     41 C         142.0150  140.0128  169.3228 C.ar    1  UNL1        0.0503
     42 C         140.7538  139.8114  168.5362 C.ar    1  UNL1        0.0145
     43 C         140.3627  140.8017  167.4795 C.ar    1  UNL1        0.0006
     44 C         141.2328  141.9932  167.2094 C.ar    1  UNL1        0.0212
     45 C         142.4941  142.1946  167.9960 C.ar    1  UNL1        0.0006
     46 C         142.8852  141.2044  169.0526 C.ar    1  UNL1        0.0145
     47 C         143.2470  137.8340  170.0189 C.2     1  UNL1        0.2262
     48 O         143.6968  137.6355  168.6017 O.2     1  UNL1       -0.2748
     49 N         142.4061  139.0226  170.3794 N.am    1  UNL1       -0.2839
     50 H         142.1109  139.1529  171.3095 H       1  UNL1        0.1549
     51 C         143.6381  136.8437  171.0756 C.3     1  UNL1        0.0873
     52 C         144.7756  135.8968  170.8318 C.3     1  UNL1        0.0365
     53 C         146.0466  136.0336  171.6164 C.3     1  UNL1        0.1517
     54 N         147.0642  137.0628  171.2224 N.3     1  UNL1       -0.3134
     55 H         147.8591  137.0164  171.8598 H       1  UNL1        0.1193
     56 H         146.6444  137.9913  171.2694 H       1  UNL1        0.1193
     57 C         146.3001  135.1411  172.7952 C.2     1  UNL1        0.3312
     58 O         145.6392  133.7969  172.8740 O.2     1  UNL1       -0.2486
     59 C         146.6513  135.9566  175.2368 C.3     1  UNL1        0.2556
     60 O         147.2146  135.5929  173.8950 O.3     1  UNL1       -0.4435
@<TRIPOS>BOND
     1    59    60    1
     2    60    57    1
     3    57    58    2
     4    57    53    1
     5    53    54    1
     6    53    52    1
     7    52    51    1
     8    51    47    1
     9    47    48    2
    10    47    49   am
    11    49    41    1
    12    41    42   ar
    13    42    43   ar
    14    43    44   ar
    15    44    40    1
    16    40    39    1
    17    39     1    1
    18     1     2    2
    19     2    33    1
    20    33    34    3
    21     2     3    1
    22     3     4    1
    23     3     5    1
    24     5     6    1
    25     5     7    1
    26     7     8    2
    27     8     9    1
    28     9    10    2
    29    11     9    1
    30    11    12    1
    31    12    13    1
    32    13    14    1
    33    14    15    1
    34    14    16    1
    35    14    17    1
    36    17    18    1
    37    18    19    1
    38    19    35    1
    39    35    36    2
    40    35    37    1
    41    37    38    1
    42    19    20    1
    43    20    21    1
    44    21    22    1
    45    22    23    1
    46    22    24    1
    47    24    25    1
    48    24    26    1
    49    26    27    1
    50    28    27    1
    51    28    29    1
    52    29    30    1
    53    29    31    1
    54    44    45   ar
    55    45    46   ar
    56    46    41   ar
    57    29     1    1
    58    28     5    1
    59    24     7    1
    60    22    11    1
    61    19    12    1
    62    54    55    1
    63    54    56    1
    64    49    50    1
    65     4    32    1
@<TRIPOS>MOLECULE
*****
 60 65 0 0 0
SMALL
GASTEIGER

@<TRIPOS>ATOM
      1 C         141.4066  141.3722  157.9902 C.2     1  UNL1        0.1235
      2 C         142.2182  140.4948  158.8966 C.2     1  UNL1        0.1026
      3 C         142.4644  139.0613  158.5297 C.3     1  UNL1        0.1481
      4 O         143.2760  138.1840  159.4361 O.3     1  UNL1       -0.3789
      5 C         141.8990  138.5052  157.2565 C.3     1  UNL1        0.0450
      6 C         142.7106  137.6279  158.1629 C.3     1  UNL1        0.0068
      7 C         142.1452  137.0718  156.8897 C.2     1  UNL1       -0.0400
      8 C         142.9569  136.1944  157.7961 C.2     1  UNL1        0.0290
      9 C         143.2031  134.7610  157.4293 C.2     1  UNL1        0.1721
     10 O         144.0147  133.8835  158.3357 O.2     1  UNL1       -0.2914
     11 C         142.6377  134.2049  156.1560 C.3     1  UNL1        0.0627
     12 C         142.8839  132.7713  155.7892 C.3     1  UNL1        0.0173
     13 C         143.6955  131.8940  156.6956 C.3     1  UNL1        0.0010
     14 C         143.9417  130.4606  156.3288 C.3     1  UNL1        0.0000
     15 C         144.4450  129.0501  156.4145 C.3     1  UNL1        0.0000
     16 C         144.6819  130.5268  157.6318 C.3     1  UNL1        0.0000
     17 C         143.3763  129.9045  155.0556 C.3     1  UNL1        0.0005
     18 C         142.5648  130.7818  154.1492 C.3     1  UNL1        0.0106
     19 C         142.3186  132.2152  154.5160 C.3     1  UNL1        0.0900
     20 C         141.5069  133.0927  153.6096 C.3     1  UNL1        0.0106
     21 C         141.2607  134.5261  153.9764 C.3     1  UNL1        0.0013
     22 C         141.8261  135.0822  155.2496 C.3     1  UNL1        0.0100
     23 C         141.0145  135.9596  154.3432 C.3     1  UNL1        0.0007
     24 C         141.5799  136.5157  155.6165 C.3     1  UNL1        0.0157
     25 C         141.3337  137.9491  155.9833 C.3     1  UNL1        0.0041
     26 C         140.7683  137.3930  154.7101 C.3     1  UNL1        0.0038
     27 C         140.5221  138.8265  155.0769 C.3     1  UNL1        0.0011
     28 C         141.0875  139.3826  156.3501 C.3     1  UNL1        0.0127
     29 C         140.8412  140.8161  156.7169 C.3     1  UNL1        0.0514
     30 C         140.3380  142.2265  156.6313 C.3     1  UNL1        0.0075
     31 C         140.1011  140.7498  155.4140 C.3     1  UNL1        0.0075
     32 H         143.5633  138.6952  160.2088 H       1  UNL1        0.2108
     33 C         142.7836  141.0509  160.1698 C.1     1  UNL1        0.1012
     34 N         143.3489  141.6070  161.4430 N.1     1  UNL1       -0.1910
     35 C         141.7532  131.6591  153.2428 C.2     1  UNL1        0.3160
     36 O         142.5359  131.7609  151.9672 O.2     1  UNL1       -0.2501
     37 O         140.4051  131.0014  153.2451 O.3     1  UNL1       -0.4444
     38 C         139.8494  130.4255  151.9764 C.3     1  UNL1        0.2556
     39 O         141.1604  142.8056  158.3570 O.2     1  UNL1       -0.4745
     40 C         139.9907  143.1678  159.2234 C.3     1  UNL1        0.2315
     41 C         140.4452  143.2460  163.6998 C.ar    1  UNL1        0.0503
     42 C         139.6382  142.1633  163.0467 C.ar    1  UNL1        0.0145
     43 C         139.4867  142.1372  161.5545 C.ar    1  UNL1        0.0006
     44 C         140.1422  143.1938  160.7155 C.ar    1  UNL1        0.0212
     45 C         140.9491  144.2766  161.3686 C.ar    1  UNL1        0.0006
     46 C         141.1006  144.3027  162.8607 C.ar    1  UNL1        0.0145
     47 C         141.4452  142.2428  165.8776 C.2     1  UNL1        0.2262
     48 O         142.1423  141.1873  165.0713 O.2     1  UNL1       -0.2748
     49 N         140.5967  143.2721  165.1918 N.am    1  UNL1       -0.2839
     50 H         140.1392  143.9649  165.7210 H       1  UNL1        0.1549
     51 C         141.5968  142.2688  167.3698 C.3     1  UNL1        0.0873
     52 C         142.9642  142.2379  167.9854 C.3     1  UNL1        0.0365
     53 C         143.1382  142.5513  169.4419 C.3     1  UNL1        0.1517
     54 N         144.5155  142.6759  170.0230 N.3     1  UNL1       -0.3134
     55 H         144.4466  142.8900  171.0179 H       1  UNL1        0.1193
     56 H         145.0184  143.4254  169.5479 H       1  UNL1        0.1193
     57 C         141.9349  142.7401  170.3174 C.2     1  UNL1        0.3312
     58 O         141.2196  144.0584  170.3351 O.2     1  UNL1       -0.2486
     59 C         140.8866  140.3731  170.5387 C.3     1  UNL1        0.2556
     60 O         141.4469  141.6105  171.1753 O.3     1  UNL1       -0.4435
@<TRIPOS>BOND
     1    59    60    1
     2    60    57    1
     3    57    58    2
     4    57    53    1
     5    53    54    1
     6    53    52    1
     7    52    51    1
     8    51    47    1
     9    47    48    2
    10    47    49   am
    11    49    41    1
    12    41    42   ar
    13    42    43   ar
    14    43    44   ar
    15    44    40    1
    16    40    39    1
    17    39     1    1
    18     1     2    2
    19     2    33    1
    20    33    34    3
    21     2     3    1
    22     3     4    1
    23     3     5    1
    24     5     6    1
    25     5     7    1
    26     7     8    2
    27     8     9    1
    28     9    10    2
    29    11     9    1
    30    11    12    1
    31    12    13    1
    32    13    14    1
    33    14    15    1
    34    14    16    1
    35    14    17    1
    36    17    18    1
    37    18    19    1
    38    19    35    1
    39    35    36    2
    40    35    37    1
    41    37    38    1
    42    19    20    1
    43    20    21    1
    44    21    22    1
    45    22    23    1
    46    22    24    1
    47    24    25    1
    48    24    26    1
    49    26    27    1
    50    28    27    1
    51    28    29    1
    52    29    30    1
    53    29    31    1
    54    44    45   ar
    55    45    46   ar
    56    46    41   ar
    57    29     1    1
    58    28     5    1
    59    24     7    1
    60    22    11    1
    61    19    12    1
    62    54    55    1
    63    54    56    1
    64    49    50    1
    65     4    32    1
@<TRIPOS>MOLECULE
*****
 60 65 0 0 0
SMALL
GASTEIGER

@<TRIPOS>ATOM
      1 C         144.6718  140.8127  156.6475 C.2     1  UNL1        0.1235
      2 C         143.6516  139.7310  156.8456 C.2     1  UNL1        0.1026
      3 C         142.9523  139.5922  158.1653 C.3     1  UNL1        0.1481
      4 O         141.9322  138.5105  158.3633 O.3     1  UNL1       -0.3789
      5 C         143.2730  140.5351  159.2869 C.3     1  UNL1        0.0450
      6 C         142.2529  139.4533  159.4849 C.3     1  UNL1        0.0068
      7 C         142.5736  140.3962  160.6066 C.2     1  UNL1       -0.0400
      8 C         141.5535  139.3145  160.8047 C.2     1  UNL1        0.0290
      9 C         140.8541  139.1757  162.1243 C.2     1  UNL1        0.1721
     10 O         139.8339  138.0939  162.3224 O.2     1  UNL1       -0.2914
     11 C         141.1748  140.1185  163.2460 C.3     1  UNL1        0.0627
     12 C         140.4754  139.9797  164.5657 C.3     1  UNL1        0.0173
     13 C         139.4553  138.8980  164.7637 C.3     1  UNL1        0.0010
     14 C         138.7559  138.7592  166.0834 C.3     1  UNL1        0.0000
     15 C         137.8339  138.2289  167.1411 C.3     1  UNL1        0.0000
     16 C         138.1149  137.6321  165.3291 C.3     1  UNL1        0.0000
     17 C         139.0766  139.7020  167.2050 C.3     1  UNL1        0.0005
     18 C         140.0967  140.7837  167.0070 C.3     1  UNL1        0.0106
     19 C         140.7961  140.9226  165.6873 C.3     1  UNL1        0.0900
     20 C         141.8163  142.0043  165.4893 C.3     1  UNL1        0.0106
     21 C         142.5156  142.1431  164.1696 C.3     1  UNL1        0.0013
     22 C         142.1949  141.2003  163.0480 C.3     1  UNL1        0.0100
     23 C         143.2151  142.2820  162.8499 C.3     1  UNL1        0.0007
     24 C         142.8944  141.3391  161.7282 C.3     1  UNL1        0.0157
     25 C         143.5937  141.4779  160.4086 C.3     1  UNL1        0.0041
     26 C         143.9145  142.4208  161.5302 C.3     1  UNL1        0.0038
     27 C         144.6138  142.5596  160.2106 C.3     1  UNL1        0.0011
     28 C         144.2931  141.6168  159.0889 C.3     1  UNL1        0.0127
     29 C         144.9925  141.7556  157.7692 C.3     1  UNL1        0.0514
     30 C         145.9145  142.2859  156.7115 C.3     1  UNL1        0.0075
     31 C         145.6334  142.8826  158.5235 C.3     1  UNL1        0.0075
     32 H         141.8456  137.9943  157.5466 H       1  UNL1        0.2108
     33 C         143.3309  138.7881  155.7240 C.1     1  UNL1        0.1012
     34 N         143.0102  137.8452  154.6023 N.1     1  UNL1       -0.1910
     35 C         141.1168  141.8655  166.8090 C.2     1  UNL1        0.3160
     36 O         140.3213  143.1256  166.9802 O.2     1  UNL1       -0.2501
     37 O         142.2331  141.5483  167.7594 O.3     1  UNL1       -0.4444
     38 C         142.5309  142.4733  168.9020 C.3     1  UNL1        0.2556
     39 O         145.3712  140.9516  155.3279 O.2     1  UNL1       -0.4745
     40 C         144.5809  141.2475  154.0878 C.3     1  UNL1        0.2315
     41 C         141.4813  144.5097  154.1200 C.ar    1  UNL1        0.0503
     42 C         141.0588  143.0729  154.2035 C.ar    1  UNL1        0.0145
     43 C         142.0920  141.9855  154.1927 C.ar    1  UNL1        0.0006
     44 C         143.5477  142.3349  154.0985 C.ar    1  UNL1        0.0212
     45 C         143.9702  143.7718  154.0151 C.ar    1  UNL1        0.0006
     46 C         142.9370  144.8592  154.0258 C.ar    1  UNL1        0.0145
     47 C         139.9286  146.1251  155.4351 C.2     1  UNL1        0.2262
     48 O         140.4422  145.5657  156.7286 O.2     1  UNL1       -0.2748
     49 N         140.4481  145.5971  154.1308 N.am    1  UNL1       -0.2839
     50 H         140.1110  145.9642  153.2818 H       1  UNL1        0.1549
     51 C         138.8954  147.2125  155.4459 C.3     1  UNL1        0.0873
     52 C         139.2398  148.5794  154.9332 C.3     1  UNL1        0.0365
     53 C         138.8018  149.7972  155.6916 C.3     1  UNL1        0.1517
     54 N         137.9261  149.6529  156.9009 N.3     1  UNL1       -0.3134
     55 H         137.7275  150.5751  157.2888 H       1  UNL1        0.1193
     56 H         138.4037  149.0852  157.6008 H       1  UNL1        0.1193
     57 C         139.2397  151.1592  155.2409 C.2     1  UNL1        0.3312
     58 O         138.2193  152.1696  154.8070 O.2     1  UNL1       -0.2486
     59 C         141.4506  151.5259  153.9266 C.3     1  UNL1        0.2556
     60 O         140.6977  151.5109  155.2239 O.3     1  UNL1       -0.4435
@<TRIPOS>BOND
     1    59    60    1
     2    60    57    1
     3    57    58    2
     4    57    53    1
     5    53    54    1
     6    53    52    1
     7    52    51    1
     8    51    47    1
     9    47    48    2
    10    47    49   am
    11    49    41    1
    12    41    42   ar
    13    42    43   ar
    14    43    44   ar
    15    44    40    1
    16    40    39    1
    17    39     1    1
    18     1     2    2
    19     2    33    1
    20    33    34    3
    21     2     3    1
    22     3     4    1
    23     3     5    1
    24     5     6    1
    25     5     7    1
    26     7     8    2
    27     8     9    1
    28     9    10    2
    29    11     9    1
    30    11    12    1
    31    12    13    1
    32    13    14    1
    33    14    15    1
    34    14    16    1
    35    14    17    1
    36    17    18    1
    37    18    19    1
    38    19    35    1
    39    35    36    2
    40    35    37    1
    41    37    38    1
    42    19    20    1
    43    20    21    1
    44    21    22    1
    45    22    23    1
    46    22    24    1
    47    24    25    1
    48    24    26    1
    49    26    27    1
    50    28    27    1
    51    28    29    1
    52    29    30    1
    53    29    31    1
    54    44    45   ar
    55    45    46   ar
    56    46    41   ar
    57    29     1    1
    58    28     5    1
    59    24     7    1
    60    22    11    1
    61    19    12    1
    62    54    55    1
    63    54    56    1
    64    49    50    1
    65     4    32    1
@<TRIPOS>MOLECULE
*****
 60 65 0 0 0
SMALL
GASTEIGER

@<TRIPOS>ATOM
      1 C         141.9139  138.8062  156.2750 C.2     1  UNL1        0.1235
      2 C         140.5768  138.4326  156.8430 C.2     1  UNL1        0.1026
      3 C         140.3291  138.5498  158.3178 C.3     1  UNL1        0.1481
      4 O         138.9920  138.1762  158.8857 O.3     1  UNL1       -0.3789
      5 C         141.4185  139.0407  159.2245 C.3     1  UNL1        0.0450
      6 C         140.0814  138.6671  159.7925 C.3     1  UNL1        0.0068
      7 C         141.1708  139.1579  160.6993 C.2     1  UNL1       -0.0400
      8 C         139.8337  138.7843  161.2673 C.2     1  UNL1        0.0290
      9 C         139.5860  138.9015  162.7420 C.2     1  UNL1        0.1721
     10 O         138.2489  138.5279  163.3100 O.2     1  UNL1       -0.2914
     11 C         140.6754  139.3924  163.6488 C.3     1  UNL1        0.0627
     12 C         140.4277  139.5096  165.1236 C.3     1  UNL1        0.0173
     13 C         139.0906  139.1360  165.6915 C.3     1  UNL1        0.0010
     14 C         138.8429  139.2532  167.1663 C.3     1  UNL1        0.0000
     15 C         138.1311  139.1927  168.4852 C.3     1  UNL1        0.0000
     16 C         137.5063  138.7413  166.7176 C.3     1  UNL1        0.0000
     17 C         139.9324  139.7440  168.0731 C.3     1  UNL1        0.0005
     18 C         141.2694  140.1176  167.5051 C.3     1  UNL1        0.0106
     19 C         141.5171  140.0004  166.0304 C.3     1  UNL1        0.0900
     20 C         142.8542  140.3740  165.4624 C.3     1  UNL1        0.0106
     21 C         143.1019  140.2568  163.9877 C.3     1  UNL1        0.0013
     22 C         142.0125  139.7660  163.0809 C.3     1  UNL1        0.0100
     23 C         143.3496  140.1396  162.5129 C.3     1  UNL1        0.0007
     24 C         142.2602  139.6487  161.6061 C.3     1  UNL1        0.0157
     25 C         142.5079  139.5315  160.1313 C.3     1  UNL1        0.0041
     26 C         143.5973  140.0223  161.0381 C.3     1  UNL1        0.0038
     27 C         143.8450  139.9051  159.5634 C.3     1  UNL1        0.0011
     28 C         142.7556  139.4143  158.6566 C.3     1  UNL1        0.0127
     29 C         143.0033  139.2970  157.1818 C.3     1  UNL1        0.0514
     30 C         143.7152  139.3576  155.8629 C.3     1  UNL1        0.0075
     31 C         144.3399  139.8089  157.6305 C.3     1  UNL1        0.0075
     32 H         138.4075  137.8816  158.1698 H       1  UNL1        0.2108
     33 C         139.4873  137.9417  155.9362 C.1     1  UNL1        0.1012
     34 N         138.3979  137.4509  155.0294 N.1     1  UNL1       -0.1910
     35 C         142.6065  140.4913  166.9372 C.2     1  UNL1        0.3160
     36 O         143.4711  139.5091  167.6708 O.2     1  UNL1       -0.2501
     37 O         142.8314  141.9641  167.1104 O.3     1  UNL1       -0.4444
     38 C         143.3681  142.4935  168.4072 C.3     1  UNL1        0.2556
     39 O         142.1616  138.6890  154.8003 O.2     1  UNL1       -0.4745
     40 C         142.1181  137.3443  154.1371 C.3     1  UNL1        0.2315
     41 C         142.8591  133.6197  156.5515 C.ar    1  UNL1        0.0503
     42 C         141.6374  133.7226  155.6873 C.ar    1  UNL1        0.0145
     43 C         141.3904  134.9642  154.8825 C.ar    1  UNL1        0.0006
     44 C         142.3651  136.1027  154.9419 C.ar    1  UNL1        0.0212
     45 C         143.5869  135.9998  155.8061 C.ar    1  UNL1        0.0006
     46 C         143.8339  134.7584  156.6108 C.ar    1  UNL1        0.0145
     47 C         144.3127  131.5318  157.0779 C.2     1  UNL1        0.2262
     48 O         145.2723  131.9267  155.9947 O.2     1  UNL1       -0.2748
     49 N         143.1062  132.3783  157.3563 N.am    1  UNL1       -0.2839
     50 H         142.4764  132.1191  158.0672 H       1  UNL1        0.1549
     51 C         144.5598  130.2902  157.8827 C.3     1  UNL1        0.0873
     52 C         144.3331  128.9407  157.2684 C.3     1  UNL1        0.0365
     53 C         144.2140  128.8050  155.7793 C.3     1  UNL1        0.1517
     54 N         145.4426  128.8603  154.9205 N.3     1  UNL1       -0.3134
     55 H         145.1781  128.7519  153.9414 H       1  UNL1        0.1193
     56 H         146.0775  128.1076  155.1865 H       1  UNL1        0.1193
     57 C         142.8663  128.6140  155.1490 C.2     1  UNL1        0.3312
     58 O         142.6485  127.5009  154.1673 O.2     1  UNL1       -0.2486
     59 C         140.3636  129.2830  154.9515 C.3     1  UNL1        0.2556
     60 O         141.7365  129.5360  155.5003 O.3     1  UNL1       -0.4435
@<TRIPOS>BOND
     1    59    60    1
     2    60    57    1
     3    57    58    2
     4    57    53    1
     5    53    54    1
     6    53    52    1
     7    52    51    1
     8    51    47    1
     9    47    48    2
    10    47    49   am
    11    49    41    1
    12    41    42   ar
    13    42    43   ar
    14    43    44   ar
    15    44    40    1
    16    40    39    1
    17    39     1    1
    18     1     2    2
    19     2    33    1
    20    33    34    3
    21     2     3    1
    22     3     4    1
    23     3     5    1
    24     5     6    1
    25     5     7    1
    26     7     8    2
    27     8     9    1
    28     9    10    2
    29    11     9    1
    30    11    12    1
    31    12    13    1
    32    13    14    1
    33    14    15    1
    34    14    16    1
    35    14    17    1
    36    17    18    1
    37    18    19    1
    38    19    35    1
    39    35    36    2
    40    35    37    1
    41    37    38    1
    42    19    20    1
    43    20    21    1
    44    21    22    1
    45    22    23    1
    46    22    24    1
    47    24    25    1
    48    24    26    1
    49    26    27    1
    50    28    27    1
    51    28    29    1
    52    29    30    1
    53    29    31    1
    54    44    45   ar
    55    45    46   ar
    56    46    41   ar
    57    29     1    1
    58    28     5    1
    59    24     7    1
    60    22    11    1
    61    19    12    1
    62    54    55    1
    63    54    56    1
    64    49    50    1
    65     4    32    1
@<TRIPOS>MOLECULE
*****
 60 65 0 0 0
SMALL
GASTEIGER

@<TRIPOS>ATOM
      1 C         136.9632  142.6661  155.8530 C.2     1  UNL1        0.1235
      2 C         136.6517  141.4673  156.6992 C.2     1  UNL1        0.1026
      3 C         137.5368  141.1174  157.8586 C.3     1  UNL1        0.1481
      4 O         137.2253  139.9187  158.7048 O.3     1  UNL1       -0.3789
      5 C         138.7332  141.9662  158.1718 C.3     1  UNL1        0.0450
      6 C         138.4218  140.7675  159.0180 C.3     1  UNL1        0.0068
      7 C         139.6183  141.6162  159.3312 C.2     1  UNL1       -0.0400
      8 C         139.3069  140.4175  160.1775 C.2     1  UNL1        0.0290
      9 C         140.1919  140.0675  161.3368 C.2     1  UNL1        0.1721
     10 O         139.8805  138.8688  162.1831 O.2     1  UNL1       -0.2914
     11 C         141.3884  140.9163  161.6500 C.3     1  UNL1        0.0627
     12 C         142.2734  140.5663  162.8095 C.3     1  UNL1        0.0173
     13 C         141.9620  139.3676  163.6557 C.3     1  UNL1        0.0010
     14 C         142.8470  139.0177  164.8150 C.3     1  UNL1        0.0000
     15 C         143.3810  138.2845  166.0098 C.3     1  UNL1        0.0000
     16 C         141.8360  137.9143  164.9169 C.3     1  UNL1        0.0000
     17 C         144.0435  139.8664  165.1282 C.3     1  UNL1        0.0005
     18 C         144.3550  141.0651  164.2820 C.3     1  UNL1        0.0106
     19 C         143.4699  141.4150  163.1226 C.3     1  UNL1        0.0900
     20 C         143.7813  142.6138  162.2763 C.3     1  UNL1        0.0106
     21 C         142.8963  142.9637  161.1170 C.3     1  UNL1        0.0013
     22 C         141.6998  142.1150  160.8038 C.3     1  UNL1        0.0100
     23 C         142.0112  143.3137  159.9575 C.3     1  UNL1        0.0007
     24 C         140.8148  142.4650  159.6443 C.3     1  UNL1        0.0157
     25 C         139.9297  142.8149  158.4850 C.3     1  UNL1        0.0041
     26 C         141.1262  143.6637  158.7981 C.3     1  UNL1        0.0038
     27 C         140.2412  144.0136  157.6388 C.3     1  UNL1        0.0011
     28 C         139.0447  143.1648  157.3256 C.3     1  UNL1        0.0127
     29 C         138.1596  143.5148  156.1661 C.3     1  UNL1        0.0514
     30 C         137.6257  144.2480  154.9714 C.3     1  UNL1        0.0075
     31 C         139.1706  144.6182  156.0644 C.3     1  UNL1        0.0075
     32 H         136.4255  139.4848  158.3689 H       1  UNL1        0.2108
     33 C         135.4553  140.6186  156.3861 C.1     1  UNL1        0.1012
     34 N         134.2588  139.7698  156.0729 N.1     1  UNL1       -0.1910
     35 C         144.6664  142.2638  163.4358 C.2     1  UNL1        0.3160
     36 O         146.0421  141.7793  163.0852 O.2     1  UNL1       -0.2501
     37 O         144.4872  143.5970  164.0995 O.3     1  UNL1       -0.4444
     38 C         144.7759  143.7509  165.5634 C.3     1  UNL1        0.2556
     39 O         136.0781  143.0160  154.6936 O.2     1  UNL1       -0.4745
     40 C         136.2229  142.2846  153.3921 C.3     1  UNL1        0.2315
     41 C         138.8099  138.6103  153.1515 C.ar    1  UNL1        0.0503
     42 C         137.3160  138.4793  153.1171 C.ar    1  UNL1        0.0145
     43 C         136.4537  139.7041  153.1973 C.ar    1  UNL1        0.0006
     44 C         137.0852  141.0598  153.3119 C.ar    1  UNL1        0.0212
     45 C         138.5791  141.1908  153.3463 C.ar    1  UNL1        0.0006
     46 C         139.4414  139.9661  153.2661 C.ar    1  UNL1        0.0145
     47 C         139.9811  136.6033  154.3133 C.2     1  UNL1        0.2262
     48 O         139.4276  137.0456  155.6354 O.2     1  UNL1       -0.2748
     49 N         139.6722  137.3857  153.0713 N.am    1  UNL1       -0.2839
     50 H         140.0355  137.0953  152.2036 H       1  UNL1        0.1549
     51 C         140.8435  135.3785  154.2331 C.3     1  UNL1        0.0873
     52 C         142.3330  135.5160  154.1227 C.3     1  UNL1        0.0365
     53 C         142.9819  136.8494  154.3487 C.3     1  UNL1        0.1517
     54 N         142.9497  137.8916  153.2704 N.3     1  UNL1       -0.3134
     55 H         143.4347  138.7291  153.5925 H       1  UNL1        0.1193
     56 H         141.9810  138.1231  153.0502 H       1  UNL1        0.1193
     57 C         143.6630  137.1406  155.6531 C.2     1  UNL1        0.3312
     58 O         144.9949  137.8304  155.6661 O.2     1  UNL1       -0.2486
     59 C         142.4817  137.7937  157.8730 C.3     1  UNL1        0.2556
     60 O         143.0123  136.7419  156.9444 O.3     1  UNL1       -0.4435
@<TRIPOS>BOND
     1    59    60    1
     2    60    57    1
     3    57    58    2
     4    57    53    1
     5    53    54    1
     6    53    52    1
     7    52    51    1
     8    51    47    1
     9    47    48    2
    10    47    49   am
    11    49    41    1
    12    41    42   ar
    13    42    43   ar
    14    43    44   ar
    15    44    40    1
    16    40    39    1
    17    39     1    1
    18     1     2    2
    19     2    33    1
    20    33    34    3
    21     2     3    1
    22     3     4    1
    23     3     5    1
    24     5     6    1
    25     5     7    1
    26     7     8    2
    27     8     9    1
    28     9    10    2
    29    11     9    1
    30    11    12    1
    31    12    13    1
    32    13    14    1
    33    14    15    1
    34    14    16    1
    35    14    17    1
    36    17    18    1
    37    18    19    1
    38    19    35    1
    39    35    36    2
    40    35    37    1
    41    37    38    1
    42    19    20    1
    43    20    21    1
    44    21    22    1
    45    22    23    1
    46    22    24    1
    47    24    25    1
    48    24    26    1
    49    26    27    1
    50    28    27    1
    51    28    29    1
    52    29    30    1
    53    29    31    1
    54    44    45   ar
    55    45    46   ar
    56    46    41   ar
    57    29     1    1
    58    28     5    1
    59    24     7    1
    60    22    11    1
    61    19    12    1
    62    54    55    1
    63    54    56    1
    64    49    50    1
    65     4    32    1
@<TRIPOS>MOLECULE
*****
 60 65 0 0 0
SMALL
GASTEIGER

@<TRIPOS>ATOM
      1 C         141.2126  141.1868  157.0372 C.2     1  UNL1        0.1235
      2 C         141.9507  140.4185  158.0932 C.2     1  UNL1        0.1026
      3 C         142.2712  138.9688  157.8800 C.3     1  UNL1        0.1481
      4 O         143.0092  138.2006  158.9360 O.3     1  UNL1       -0.3789
      5 C         141.8535  138.2872  156.6107 C.3     1  UNL1        0.0450
      6 C         142.5916  137.5190  157.6667 C.3     1  UNL1        0.0068
      7 C         142.1740  136.8375  156.3974 C.2     1  UNL1       -0.0400
      8 C         142.9120  136.0692  157.4535 C.2     1  UNL1        0.0290
      9 C         143.2325  134.6195  157.2402 C.2     1  UNL1        0.1721
     10 O         143.9706  133.8512  158.2962 O.2     1  UNL1       -0.2914
     11 C         142.8149  133.9379  155.9709 C.3     1  UNL1        0.0627
     12 C         143.1353  132.4881  155.7577 C.3     1  UNL1        0.0173
     13 C         143.8734  131.7199  156.8137 C.3     1  UNL1        0.0010
     14 C         144.1938  130.2702  156.6004 C.3     1  UNL1        0.0000
     15 C         144.7231  128.8907  156.8592 C.3     1  UNL1        0.0000
     16 C         144.7953  130.4726  157.9596 C.3     1  UNL1        0.0000
     17 C         143.7762  129.5886  155.3312 C.3     1  UNL1        0.0005
     18 C         143.0381  130.3567  154.2752 C.3     1  UNL1        0.0106
     19 C         142.7177  131.8065  154.4884 C.3     1  UNL1        0.0900
     20 C         141.9796  132.5747  153.4324 C.3     1  UNL1        0.0106
     21 C         141.6592  134.0244  153.6457 C.3     1  UNL1        0.0013
     22 C         142.0768  134.7060  154.9149 C.3     1  UNL1        0.0100
     23 C         141.3387  135.4743  153.8589 C.3     1  UNL1        0.0007
     24 C         141.7563  136.1559  155.1282 C.3     1  UNL1        0.0157
     25 C         141.4359  137.6056  155.3414 C.3     1  UNL1        0.0041
     26 C         141.0183  136.9240  154.0722 C.3     1  UNL1        0.0038
     27 C         140.6979  138.3738  154.2855 C.3     1  UNL1        0.0011
     28 C         141.1155  139.0553  155.5547 C.3     1  UNL1        0.0127
     29 C         140.7950  140.5052  155.7679 C.3     1  UNL1        0.0514
     30 C         140.2657  141.8846  155.5092 C.3     1  UNL1        0.0075
     31 C         140.1936  140.3026  154.4089 C.3     1  UNL1        0.0075
     32 H         143.2025  138.7853  159.6854 H       1  UNL1        0.2108
     33 C         142.3684  141.1001  159.3625 C.1     1  UNL1        0.1012
     34 N         142.7860  141.7817  160.6318 N.1     1  UNL1       -0.1910
     35 C         142.3001  131.1249  153.2192 C.2     1  UNL1        0.3160
     36 O         143.2399  131.0735  152.0512 O.2     1  UNL1       -0.2501
     37 O         140.9427  130.4947  153.1179 O.3     1  UNL1       -0.4444
     38 C         140.6206  129.5882  151.9670 C.3     1  UNL1        0.2556
     39 O         140.8922  142.6365  157.2505 O.2     1  UNL1       -0.4745
     40 C         139.5981  143.0311  157.8981 C.3     1  UNL1        0.2315
     41 C         139.1444  142.7616  162.3671 C.ar    1  UNL1        0.0503
     42 C         139.8662  143.9256  161.7554 C.ar    1  UNL1        0.0145
     43 C         140.0174  144.0154  160.2657 C.ar    1  UNL1        0.0006
     44 C         139.4469  142.9413  159.3878 C.ar    1  UNL1        0.0212
     45 C         138.7251  141.7773  159.9995 C.ar    1  UNL1        0.0006
     46 C         138.5739  141.6875  161.4892 C.ar    1  UNL1        0.0145
     47 C         140.1247  142.1562  164.6957 C.2     1  UNL1        0.2262
     48 O         141.4074  141.7304  164.0450 O.2     1  UNL1       -0.2748
     49 N         138.9932  142.6718  163.8567 N.am    1  UNL1       -0.2839
     50 H         138.1513  142.9512  164.2838 H       1  UNL1        0.1549
     51 C         139.9735  142.0663  166.1854 C.3     1  UNL1        0.0873
     52 C         140.3890  140.8190  166.9075 C.3     1  UNL1        0.0365
     53 C         139.3487  139.8806  167.4431 C.3     1  UNL1        0.1517
     54 N         139.0293  139.8724  168.9087 N.3     1  UNL1       -0.3134
     55 H         138.3049  139.1788  169.0949 H       1  UNL1        0.1193
     56 H         138.6969  140.7950  169.1894 H       1  UNL1        0.1193
     57 C         138.6277  138.9503  166.5132 C.2     1  UNL1        0.3312
     58 O         137.3092  138.3596  166.9166 O.2     1  UNL1       -0.2486
     59 C         138.4893  138.9548  163.9188 C.3     1  UNL1        0.2556
     60 O         139.2251  138.6107  165.1799 O.3     1  UNL1       -0.4435
@<TRIPOS>BOND
     1    59    60    1
     2    60    57    1
     3    57    58    2
     4    57    53    1
     5    53    54    1
     6    53    52    1
     7    52    51    1
     8    51    47    1
     9    47    48    2
    10    47    49   am
    11    49    41    1
    12    41    42   ar
    13    42    43   ar
    14    43    44   ar
    15    44    40    1
    16    40    39    1
    17    39     1    1
    18     1     2    2
    19     2    33    1
    20    33    34    3
    21     2     3    1
    22     3     4    1
    23     3     5    1
    24     5     6    1
    25     5     7    1
    26     7     8    2
    27     8     9    1
    28     9    10    2
    29    11     9    1
    30    11    12    1
    31    12    13    1
    32    13    14    1
    33    14    15    1
    34    14    16    1
    35    14    17    1
    36    17    18    1
    37    18    19    1
    38    19    35    1
    39    35    36    2
    40    35    37    1
    41    37    38    1
    42    19    20    1
    43    20    21    1
    44    21    22    1
    45    22    23    1
    46    22    24    1
    47    24    25    1
    48    24    26    1
    49    26    27    1
    50    28    27    1
    51    28    29    1
    52    29    30    1
    53    29    31    1
    54    44    45   ar
    55    45    46   ar
    56    46    41   ar
    57    29     1    1
    58    28     5    1
    59    24     7    1
    60    22    11    1
    61    19    12    1
    62    54    55    1
    63    54    56    1
    64    49    50    1
    65     4    32    1
