@<TRIPOS>MOLECULE
*****
 45 48 0 0 0
SMALL
GASTEIGER

@<TRIPOS>ATOM
      1 C         142.1901  144.9221  162.6107 C.3     1  UNL1        0.0331
      2 C         143.5310  144.9485  163.2824 C.3     1  UNL1        0.0201
      3 C         144.4492  144.0396  162.5203 C.3     1  UNL1        0.0722
      4 N         143.6757  143.4514  161.3776 N.3     1  UNL1       -0.2726
      5 C         142.2795  143.9968  161.4335 C.3     1  UNL1        0.0735
      6 C         140.9733  145.6867  163.0407 C.3     1  UNL1        0.0702
      7 N         140.1618  145.2098  164.2086 N.3     1  UNL1       -0.2937
      8 H         140.6942  145.4353  165.0489 H       1  UNL1        0.1236
      9 C         139.7778  143.7636  164.3145 C.3     1  UNL1        0.0956
     10 C         142.4151  141.0795  165.5754 C.ar    1  UNL1        0.0103
     11 C         141.6476  141.9948  164.6681 C.ar    1  UNL1       -0.0042
     12 C         140.5453  142.8483  165.2218 C.ar    1  UNL1       -0.0068
     13 C         140.2106  142.7866  166.6826 C.ar    1  UNL1       -0.0042
     14 C         140.9781  141.8713  167.5898 C.ar    1  UNL1        0.0103
     15 C         142.0804  141.0178  167.0362 C.ar    1  UNL1        0.1255
     16 O         142.8479  140.1024  167.9435 O.3     1  UNL1       -0.5061
     17 H         142.6388  140.0639  168.8561 H       1  UNL1        0.2922
     18 C         144.3371  141.4545  164.7598 C.3     1  UNL1        0.0045
     19 C         143.5174  140.2260  165.0217 C.3     1  UNL1        0.0218
     20 C         142.6976  138.9974  165.2837 C.3     1  UNL1        0.0045
     21 C         144.6196  139.3724  164.4681 C.3     1  UNL1        0.0045
     22 C         140.6434  141.8095  169.0508 C.3     1  UNL1        0.0218
     23 C         141.5950  142.9381  169.3165 C.3     1  UNL1        0.0045
     24 C         139.6918  140.6809  168.7850 C.3     1  UNL1        0.0045
     25 C         140.3087  141.7477  170.5116 C.3     1  UNL1        0.0045
     26 C         144.2054  142.4871  160.3580 C.3     1  UNL1        0.0721
     27 C         143.4712  141.2084  160.0826 C.3     1  UNL1        0.0173
     28 C         143.0882  140.3043  161.2165 C.3     1  UNL1        0.0014
     29 C         142.4076  138.9972  160.9366 C.3     1  UNL1        0.0007
     30 C         141.4347  138.4308  161.9280 C.3     1  UNL1        0.0087
     31 C         140.1434  139.1429  162.2026 C.3     1  UNL1        0.0446
     32 C         139.5443  140.0385  161.1591 C.ar    1  UNL1       -0.0183
     33 C         139.6269  141.5284  161.3124 C.ar    1  UNL1       -0.0017
     34 C         139.0278  142.4241  160.2690 C.ar    1  UNL1        0.0293
     35 C         138.3461  141.8299  159.0722 C.ar    1  UNL1        0.1401
     36 F         137.7470  142.7256  158.0287 F       1  UNL1       -0.2042
     37 C         138.2635  140.3400  158.9189 C.ar    1  UNL1        0.0293
     38 C         138.8626  139.4443  159.9624 C.ar    1  UNL1       -0.0017
     39 C         139.4513  138.9594  163.5207 C.ar    1  UNL1       -0.0183
     40 C         138.7602  140.1200  164.1729 C.ar    1  UNL1       -0.0017
     41 C         138.0681  139.9365  165.4910 C.ar    1  UNL1        0.0293
     42 C         138.0671  138.5923  166.1569 C.ar    1  UNL1        0.1401
     43 F         137.3751  138.4088  167.4749 F       1  UNL1       -0.2042
     44 C         138.7582  137.4317  165.5046 C.ar    1  UNL1        0.0293
     45 C         139.4504  137.6153  164.1865 C.ar    1  UNL1       -0.0017
@<TRIPOS>BOND
     1    18    19    1
     2    19    20    1
     3    19    21    1
     4    19    10    1
     5    10    11   ar
     6    11    12   ar
     7    12     9    1
     8     9     7    1
     9     7     6    1
    10     6     1    1
    11     1     2    1
    12     2     3    1
    13     3     4    1
    14     4    26    1
    15    26    27    1
    16    27    28    1
    17    28    29    1
    18    29    30    1
    19    30    31    1
    20    31    32    1
    21    32    33   ar
    22    33    34   ar
    23    34    35   ar
    24    35    36    1
    25    35    37   ar
    26    37    38   ar
    27    31    39    1
    28    39    40   ar
    29    40    41   ar
    30    41    42   ar
    31    42    43    1
    32    42    44   ar
    33    44    45   ar
    34     4     5    1
    35    12    13   ar
    36    13    14   ar
    37    14    22    1
    38    22    23    1
    39    22    24    1
    40    22    25    1
    41    14    15   ar
    42    15    16    1
    43    15    10   ar
    44     5     1    1
    45    38    32   ar
    46    45    39   ar
    47     7     8    1
    48    16    17    1
@<TRIPOS>MOLECULE
*****
 45 48 0 0 0
SMALL
GASTEIGER

@<TRIPOS>ATOM
      1 C         141.3207  144.9662  162.0018 C.3     1  UNL1        0.0331
      2 C         140.3488  145.5033  160.9933 C.3     1  UNL1        0.0201
      3 C         140.7584  144.9998  159.6409 C.3     1  UNL1        0.0722
      4 N         141.9834  144.1516  159.8136 N.3     1  UNL1       -0.2726
      5 C         142.3309  144.1308  161.2727 C.3     1  UNL1        0.0735
      6 C         141.2881  145.2200  163.4798 C.3     1  UNL1        0.0702
      7 N         139.9779  145.2319  164.2100 N.3     1  UNL1       -0.2937
      8 H         140.1751  145.5344  165.1639 H       1  UNL1        0.1236
      9 C         139.1656  143.9751  164.3136 C.3     1  UNL1        0.0956
     10 C         140.6858  142.1865  167.5136 C.ar    1  UNL1        0.0103
     11 C         140.2849  143.2610  166.5468 C.ar    1  UNL1       -0.0042
     12 C         139.5665  142.9005  165.2803 C.ar    1  UNL1       -0.0068
     13 C         139.2490  141.4655  164.9807 C.ar    1  UNL1       -0.0042
     14 C         139.6499  140.3910  165.9474 C.ar    1  UNL1        0.0103
     15 C         140.3683  140.7515  167.2139 C.ar    1  UNL1        0.1255
     16 O         140.7692  139.6769  168.1807 O.3     1  UNL1       -0.5061
     17 H         140.5708  138.7805  167.9935 H       1  UNL1        0.2922
     18 C         140.0886  142.8045  169.4530 C.3     1  UNL1        0.0045
     19 C         141.4042  142.5471  168.7800 C.3     1  UNL1        0.0218
     20 C         142.7198  142.2897  168.1070 C.3     1  UNL1        0.0045
     21 C         142.1226  142.9076  170.0465 C.3     1  UNL1        0.0045
     22 C         139.3324  138.9559  165.6478 C.3     1  UNL1        0.0218
     23 C         140.6878  138.7853  165.0284 C.3     1  UNL1        0.0045
     24 C         137.9769  139.1265  166.2671 C.3     1  UNL1        0.0045
     25 C         139.0148  137.5209  165.3481 C.3     1  UNL1        0.0045
     26 C         142.7299  143.4477  158.7194 C.3     1  UNL1        0.0721
     27 C         144.0840  142.8628  158.9914 C.3     1  UNL1        0.0173
     28 C         144.4204  141.4877  158.4955 C.3     1  UNL1        0.0014
     29 C         143.5354  140.3276  158.8434 C.3     1  UNL1        0.0007
     30 C         143.6655  139.6594  160.1801 C.3     1  UNL1        0.0087
     31 C         142.8288  140.1237  161.3353 C.3     1  UNL1        0.0446
     32 C         143.4413  140.9675  162.4135 C.ar    1  UNL1       -0.0183
     33 C         144.8782  141.3860  162.3131 C.ar    1  UNL1       -0.0017
     34 C         145.4908  142.2299  163.3913 C.ar    1  UNL1        0.0293
     35 C         144.6664  142.6553  164.5700 C.ar    1  UNL1        0.1401
     36 F         145.2789  143.4992  165.6484 F       1  UNL1       -0.2042
     37 C         143.2294  142.2368  164.6705 C.ar    1  UNL1        0.0293
     38 C         142.6169  141.3930  163.5922 C.ar    1  UNL1       -0.0017
     39 C         141.3796  139.7440  161.4121 C.ar    1  UNL1       -0.0183
     40 C         140.3222  140.8068  161.3626 C.ar    1  UNL1       -0.0017
     41 C         138.8731  140.4271  161.4394 C.ar    1  UNL1        0.0293
     42 C         138.4814  138.9847  161.5657 C.ar    1  UNL1        0.1401
     43 F         137.0323  138.6050  161.6425 F       1  UNL1       -0.2042
     44 C         139.5388  137.9219  161.6152 C.ar    1  UNL1        0.0293
     45 C         140.9880  138.3016  161.5384 C.ar    1  UNL1       -0.0017
@<TRIPOS>BOND
     1    18    19    1
     2    19    20    1
     3    19    21    1
     4    19    10    1
     5    10    11   ar
     6    11    12   ar
     7    12     9    1
     8     9     7    1
     9     7     6    1
    10     6     1    1
    11     1     2    1
    12     2     3    1
    13     3     4    1
    14     4    26    1
    15    26    27    1
    16    27    28    1
    17    28    29    1
    18    29    30    1
    19    30    31    1
    20    31    32    1
    21    32    33   ar
    22    33    34   ar
    23    34    35   ar
    24    35    36    1
    25    35    37   ar
    26    37    38   ar
    27    31    39    1
    28    39    40   ar
    29    40    41   ar
    30    41    42   ar
    31    42    43    1
    32    42    44   ar
    33    44    45   ar
    34     4     5    1
    35    12    13   ar
    36    13    14   ar
    37    14    22    1
    38    22    23    1
    39    22    24    1
    40    22    25    1
    41    14    15   ar
    42    15    16    1
    43    15    10   ar
    44     5     1    1
    45    38    32   ar
    46    45    39   ar
    47     7     8    1
    48    16    17    1
@<TRIPOS>MOLECULE
*****
 45 48 0 0 0
SMALL
GASTEIGER

@<TRIPOS>ATOM
      1 C         142.2193  144.7117  162.6666 C.3     1  UNL1        0.0331
      2 C         143.6223  144.8495  163.1791 C.3     1  UNL1        0.0201
      3 C         144.4686  143.8156  162.4973 C.3     1  UNL1        0.0722
      4 N         143.5886  143.0387  161.5634 N.3     1  UNL1       -0.2726
      5 C         142.1985  143.5926  161.6681 C.3     1  UNL1        0.0735
      6 C         141.0436  145.5465  163.0800 C.3     1  UNL1        0.0702
      7 N         140.2386  145.1629  164.2861 N.3     1  UNL1       -0.2937
      8 H         140.8077  145.3852  165.1029 H       1  UNL1        0.1236
      9 C         139.7705  143.7481  164.4565 C.3     1  UNL1        0.0956
     10 C         140.9891  141.8454  167.7192 C.ar    1  UNL1        0.0103
     11 C         140.2342  142.7823  166.8235 C.ar    1  UNL1       -0.0042
     12 C         140.5254  142.8111  165.3523 C.ar    1  UNL1       -0.0068
     13 C         141.5713  141.9029  164.7768 C.ar    1  UNL1       -0.0042
     14 C         142.3261  140.9660  165.6726 C.ar    1  UNL1        0.0103
     15 C         142.0350  140.9373  167.1438 C.ar    1  UNL1        0.1255
     16 O         142.7899  140.0003  168.0395 O.3     1  UNL1       -0.5061
     17 H         143.4432  139.4330  167.6800 H       1  UNL1        0.2922
     18 C         139.6990  140.7193  168.9713 C.3     1  UNL1        0.0045
     19 C         140.6979  141.8167  169.1904 C.3     1  UNL1        0.0218
     20 C         141.6968  142.9140  169.4095 C.3     1  UNL1        0.0045
     21 C         140.4068  141.7879  170.6616 C.3     1  UNL1        0.0045
     22 C         143.3721  140.0578  165.0971 C.3     1  UNL1        0.0218
     23 C         142.4682  138.8803  165.3124 C.3     1  UNL1        0.0045
     24 C         144.2760  141.2353  164.8818 C.3     1  UNL1        0.0045
     25 C         144.4181  139.1496  164.5217 C.3     1  UNL1        0.0045
     26 C         144.0225  141.9067  160.6800 C.3     1  UNL1        0.0721
     27 C         143.0809  140.7745  160.3950 C.3     1  UNL1        0.0173
     28 C         142.9415  139.6496  161.3774 C.3     1  UNL1        0.0014
     29 C         142.1361  138.4360  161.0187 C.3     1  UNL1        0.0007
     30 C         141.0528  137.9560  161.9387 C.3     1  UNL1        0.0087
     31 C         139.9028  138.8573  162.2779 C.3     1  UNL1        0.0446
     32 C         139.3904  139.8340  161.2613 C.ar    1  UNL1       -0.0183
     33 C         139.4825  141.3079  161.5244 C.ar    1  UNL1       -0.0017
     34 C         138.9701  142.2847  160.5079 C.ar    1  UNL1        0.0293
     35 C         138.3656  141.7876  159.2283 C.ar    1  UNL1        0.1401
     36 F         137.8531  142.7644  158.2117 F       1  UNL1       -0.2042
     37 C         138.2735  140.3138  158.9652 C.ar    1  UNL1        0.0293
     38 C         138.7859  139.3370  159.9817 C.ar    1  UNL1       -0.0017
     39 C         139.2653  138.7819  163.6336 C.ar    1  UNL1       -0.0183
     40 C         139.1785  137.4667  164.3495 C.ar    1  UNL1       -0.0017
     41 C         138.5410  137.3913  165.7052 C.ar    1  UNL1        0.0293
     42 C         137.9902  138.6312  166.3449 C.ar    1  UNL1        0.1401
     43 F         137.3527  138.5558  167.7006 F       1  UNL1       -0.2042
     44 C         138.0769  139.9465  165.6290 C.ar    1  UNL1        0.0293
     45 C         138.7145  140.0219  164.2733 C.ar    1  UNL1       -0.0017
@<TRIPOS>BOND
     1    18    19    1
     2    19    20    1
     3    19    21    1
     4    19    10    1
     5    10    11   ar
     6    11    12   ar
     7    12     9    1
     8     9     7    1
     9     7     6    1
    10     6     1    1
    11     1     2    1
    12     2     3    1
    13     3     4    1
    14     4    26    1
    15    26    27    1
    16    27    28    1
    17    28    29    1
    18    29    30    1
    19    30    31    1
    20    31    32    1
    21    32    33   ar
    22    33    34   ar
    23    34    35   ar
    24    35    36    1
    25    35    37   ar
    26    37    38   ar
    27    31    39    1
    28    39    40   ar
    29    40    41   ar
    30    41    42   ar
    31    42    43    1
    32    42    44   ar
    33    44    45   ar
    34     4     5    1
    35    12    13   ar
    36    13    14   ar
    37    14    22    1
    38    22    23    1
    39    22    24    1
    40    22    25    1
    41    14    15   ar
    42    15    16    1
    43    15    10   ar
    44     5     1    1
    45    38    32   ar
    46    45    39   ar
    47     7     8    1
    48    16    17    1
@<TRIPOS>MOLECULE
*****
 45 48 0 0 0
SMALL
GASTEIGER

@<TRIPOS>ATOM
      1 C         141.8495  144.9376  162.4518 C.3     1  UNL1        0.0331
      2 C         140.6784  145.8731  162.5107 C.3     1  UNL1        0.0201
      3 C         139.9704  145.8131  161.1896 C.3     1  UNL1        0.0722
      4 N         140.7038  144.8406  160.3143 N.3     1  UNL1       -0.2726
      5 C         141.8652  144.2995  161.0944 C.3     1  UNL1        0.0735
      6 C         142.8323  144.6847  163.5564 C.3     1  UNL1        0.0702
      7 N         143.9835  143.7487  163.3363 N.3     1  UNL1       -0.2937
      8 H         143.6579  143.0279  162.6921 H       1  UNL1        0.1236
      9 C         144.6062  143.0386  164.5016 C.3     1  UNL1        0.0956
     10 C         142.5303  141.9252  167.6956 C.ar    1  UNL1        0.0103
     11 C         143.3832  142.7472  166.7753 C.ar    1  UNL1       -0.0042
     12 C         143.7533  142.2166  165.4219 C.ar    1  UNL1       -0.0068
     13 C         143.2705  140.8641  164.9889 C.ar    1  UNL1       -0.0042
     14 C         142.4176  140.0421  165.9092 C.ar    1  UNL1        0.0103
     15 C         142.0475  140.5727  167.2625 C.ar    1  UNL1        0.1255
     16 O         141.1946  139.7507  168.1828 O.3     1  UNL1       -0.5061
     17 H         140.8930  138.9058  167.9123 H       1  UNL1        0.2922
     18 C         143.4870  142.0084  169.5871 C.3     1  UNL1        0.0045
     19 C         142.1602  142.4558  169.0489 C.3     1  UNL1        0.0218
     20 C         140.8335  142.9032  168.5107 C.3     1  UNL1        0.0045
     21 C         141.7901  142.9864  170.4022 C.3     1  UNL1        0.0045
     22 C         141.9348  138.6895  165.4761 C.3     1  UNL1        0.0218
     23 C         140.5596  139.2489  165.2620 C.3     1  UNL1        0.0045
     24 C         143.3100  138.1301  165.6903 C.3     1  UNL1        0.0045
     25 C         141.4521  137.3370  165.0431 C.3     1  UNL1        0.0045
     26 C         140.3399  144.4736  158.9062 C.3     1  UNL1        0.0721
     27 C         139.2760  143.4479  158.6496 C.3     1  UNL1        0.0173
     28 C         139.5835  141.9896  158.8196 C.3     1  UNL1        0.0014
     29 C         138.4879  141.0285  159.1746 C.3     1  UNL1        0.0007
     30 C         138.1924  140.7265  160.6140 C.3     1  UNL1        0.0087
     31 C         139.2402  140.9646  161.6607 C.3     1  UNL1        0.0446
     32 C         139.0328  142.0242  162.7019 C.ar    1  UNL1       -0.0183
     33 C         139.9347  142.0860  163.8989 C.ar    1  UNL1       -0.0017
     34 C         139.7274  143.1456  164.9402 C.ar    1  UNL1        0.0293
     35 C         138.6183  144.1433  164.7845 C.ar    1  UNL1        0.1401
     36 F         138.4110  145.2030  165.8258 F       1  UNL1       -0.2042
     37 C         137.7164  144.0815  163.5875 C.ar    1  UNL1        0.0293
     38 C         137.9237  143.0219  162.5462 C.ar    1  UNL1       -0.0017
     39 C         140.4952  140.1430  161.6661 C.ar    1  UNL1       -0.0183
     40 C         140.4113  138.6455  161.6830 C.ar    1  UNL1       -0.0017
     41 C         141.6663  137.8240  161.6884 C.ar    1  UNL1        0.0293
     42 C         143.0053  138.5001  161.6768 C.ar    1  UNL1        0.1401
     43 F         144.2603  137.6786  161.6822 F       1  UNL1       -0.2042
     44 C         143.0892  139.9976  161.6598 C.ar    1  UNL1        0.0293
     45 C         141.8342  140.8192  161.6544 C.ar    1  UNL1       -0.0017
@<TRIPOS>BOND
     1    18    19    1
     2    19    20    1
     3    19    21    1
     4    19    10    1
     5    10    11   ar
     6    11    12   ar
     7    12     9    1
     8     9     7    1
     9     7     6    1
    10     6     1    1
    11     1     2    1
    12     2     3    1
    13     3     4    1
    14     4    26    1
    15    26    27    1
    16    27    28    1
    17    28    29    1
    18    29    30    1
    19    30    31    1
    20    31    32    1
    21    32    33   ar
    22    33    34   ar
    23    34    35   ar
    24    35    36    1
    25    35    37   ar
    26    37    38   ar
    27    31    39    1
    28    39    40   ar
    29    40    41   ar
    30    41    42   ar
    31    42    43    1
    32    42    44   ar
    33    44    45   ar
    34     4     5    1
    35    12    13   ar
    36    13    14   ar
    37    14    22    1
    38    22    23    1
    39    22    24    1
    40    22    25    1
    41    14    15   ar
    42    15    16    1
    43    15    10   ar
    44     5     1    1
    45    38    32   ar
    46    45    39   ar
    47     7     8    1
    48    16    17    1
@<TRIPOS>MOLECULE
*****
 45 48 0 0 0
SMALL
GASTEIGER

@<TRIPOS>ATOM
      1 C         141.2335  144.9548  161.9689 C.3     1  UNL1        0.0331
      2 C         140.3001  145.5502  160.9570 C.3     1  UNL1        0.0201
      3 C         140.6287  144.9584  159.6184 C.3     1  UNL1        0.0722
      4 N         141.7653  143.9972  159.8031 N.3     1  UNL1       -0.2726
      5 C         142.1391  143.9949  161.2558 C.3     1  UNL1        0.0735
      6 C         141.2573  145.2647  163.4364 C.3     1  UNL1        0.0702
      7 N         139.9854  145.2308  164.2308 N.3     1  UNL1       -0.2937
      8 H         140.2280  145.4926  165.1863 H       1  UNL1        0.1236
      9 C         139.1894  143.9624  164.3182 C.3     1  UNL1        0.0956
     10 C         139.6546  140.3849  165.9720 C.ar    1  UNL1        0.0103
     11 C         139.2533  141.4569  165.0026 C.ar    1  UNL1       -0.0042
     12 C         139.5907  142.8904  165.2877 C.ar    1  UNL1       -0.0068
     13 C         140.3293  143.2519  166.5421 C.ar    1  UNL1       -0.0042
     14 C         140.7305  142.1799  167.5115 C.ar    1  UNL1        0.0103
     15 C         140.3932  140.7464  167.2264 C.ar    1  UNL1        0.1255
     16 O         140.7945  139.6744  168.1959 O.3     1  UNL1       -0.5061
     17 H         141.2559  139.9002  168.9795 H       1  UNL1        0.2922
     18 C         140.6867  138.7436  165.1113 C.3     1  UNL1        0.0045
     19 C         139.3172  138.9514  165.6869 C.3     1  UNL1        0.0218
     20 C         137.9477  139.1592  166.2624 C.3     1  UNL1        0.0045
     21 C         138.9798  137.5179  165.4018 C.3     1  UNL1        0.0045
     22 C         141.4692  142.5414  168.7661 C.3     1  UNL1        0.0218
     23 C         140.1651  142.8110  169.4563 C.3     1  UNL1        0.0045
     24 C         142.7733  142.2717  168.0758 C.3     1  UNL1        0.0045
     25 C         142.2079  142.9028  170.0205 C.3     1  UNL1        0.0045
     26 C         142.4142  143.1814  158.7245 C.3     1  UNL1        0.0721
     27 C         143.8602  142.7997  158.8400 C.3     1  UNL1        0.0173
     28 C         144.3111  141.4328  158.4179 C.3     1  UNL1        0.0014
     29 C         143.4929  140.2285  158.7785 C.3     1  UNL1        0.0007
     30 C         143.6540  139.5882  160.1255 C.3     1  UNL1        0.0087
     31 C         142.8234  140.0574  161.2831 C.3     1  UNL1        0.0446
     32 C         143.4405  140.9091  162.3525 C.ar    1  UNL1       -0.0183
     33 C         144.8661  141.3578  162.2244 C.ar    1  UNL1       -0.0017
     34 C         145.4833  142.2095  163.2938 C.ar    1  UNL1        0.0293
     35 C         144.6749  142.6126  164.4912 C.ar    1  UNL1        0.1401
     36 F         145.2920  143.4644  165.5607 F       1  UNL1       -0.2042
     37 C         143.2493  142.1640  164.6193 C.ar    1  UNL1        0.0293
     38 C         142.6321  141.3122  163.5499 C.ar    1  UNL1       -0.0017
     39 C         141.3756  139.6748  161.3711 C.ar    1  UNL1       -0.0183
     40 C         140.3120  140.7161  161.1851 C.ar    1  UNL1       -0.0017
     41 C         138.8643  140.3335  161.2732 C.ar    1  UNL1        0.0293
     42 C         138.4802  138.9096  161.5473 C.ar    1  UNL1        0.1401
     43 F         137.0325  138.5270  161.6353 F       1  UNL1       -0.2042
     44 C         139.5438  137.8684  161.7333 C.ar    1  UNL1        0.0293
     45 C         140.9916  138.2510  161.6452 C.ar    1  UNL1       -0.0017
@<TRIPOS>BOND
     1    18    19    1
     2    19    20    1
     3    19    21    1
     4    19    10    1
     5    10    11   ar
     6    11    12   ar
     7    12     9    1
     8     9     7    1
     9     7     6    1
    10     6     1    1
    11     1     2    1
    12     2     3    1
    13     3     4    1
    14     4    26    1
    15    26    27    1
    16    27    28    1
    17    28    29    1
    18    29    30    1
    19    30    31    1
    20    31    32    1
    21    32    33   ar
    22    33    34   ar
    23    34    35   ar
    24    35    36    1
    25    35    37   ar
    26    37    38   ar
    27    31    39    1
    28    39    40   ar
    29    40    41   ar
    30    41    42   ar
    31    42    43    1
    32    42    44   ar
    33    44    45   ar
    34     4     5    1
    35    12    13   ar
    36    13    14   ar
    37    14    22    1
    38    22    23    1
    39    22    24    1
    40    22    25    1
    41    14    15   ar
    42    15    16    1
    43    15    10   ar
    44     5     1    1
    45    38    32   ar
    46    45    39   ar
    47     7     8    1
    48    16    17    1
@<TRIPOS>MOLECULE
*****
 45 48 0 0 0
SMALL
GASTEIGER

@<TRIPOS>ATOM
      1 C         138.4864  144.2241  162.5545 C.3     1  UNL1        0.0331
      2 C         139.5755  145.1773  162.1606 C.3     1  UNL1        0.0201
      3 C         140.0299  144.8159  160.7775 C.3     1  UNL1        0.0722
      4 N         139.2216  143.6393  160.3166 N.3     1  UNL1       -0.2726
      5 C         138.2677  143.2736  161.4149 C.3     1  UNL1        0.0735
      6 C         137.7460  144.2218  163.8591 C.3     1  UNL1        0.0702
      7 N         138.3438  143.5500  165.0596 N.3     1  UNL1       -0.2937
      8 H         137.7632  143.8041  165.8588 H       1  UNL1        0.1236
      9 C         139.7643  143.8343  165.4485 C.3     1  UNL1        0.0956
     10 C         141.3036  141.4556  168.2274 C.ar    1  UNL1        0.0103
     11 C         140.4763  142.5237  167.5758 C.ar    1  UNL1       -0.0042
     12 C         140.5917  142.7662  166.1000 C.ar    1  UNL1       -0.0068
     13 C         141.5346  141.9405  165.2758 C.ar    1  UNL1       -0.0042
     14 C         142.3619  140.8724  165.9274 C.ar    1  UNL1        0.0103
     15 C         142.2465  140.6300  167.4032 C.ar    1  UNL1        0.1255
     16 O         143.0739  139.5618  168.0548 O.3     1  UNL1       -0.5061
     17 H         143.6628  139.0461  167.5399 H       1  UNL1        0.2922
     18 C         140.1387  140.1718  169.4500 C.3     1  UNL1        0.0045
     19 C         141.1882  141.2132  169.7032 C.3     1  UNL1        0.0218
     20 C         142.2377  142.2546  169.9563 C.3     1  UNL1        0.0045
     21 C         141.0727  140.9708  171.1789 C.3     1  UNL1        0.0045
     22 C         143.3048  140.0467  165.1032 C.3     1  UNL1        0.0218
     23 C         144.2120  141.2318  164.9536 C.3     1  UNL1        0.0045
     24 C         142.3976  138.8616  165.2528 C.3     1  UNL1        0.0045
     25 C         144.2476  139.2210  164.2791 C.3     1  UNL1        0.0045
     26 C         139.3455  142.9496  158.9904 C.3     1  UNL1        0.0721
     27 C         138.3687  141.8773  158.6086 C.3     1  UNL1        0.0173
     28 C         138.7081  140.4353  158.8440 C.3     1  UNL1        0.0014
     29 C         138.0696  139.6900  159.9785 C.3     1  UNL1        0.0007
     30 C         138.8751  138.7110  160.7803 C.3     1  UNL1        0.0087
     31 C         139.7057  139.1899  161.9339 C.3     1  UNL1        0.0446
     32 C         141.0303  139.8472  161.6823 C.ar    1  UNL1       -0.0183
     33 C         142.1865  139.0356  161.1779 C.ar    1  UNL1       -0.0017
     34 C         143.5112  139.6929  160.9263 C.ar    1  UNL1        0.0293
     35 C         143.6796  141.1618  161.1791 C.ar    1  UNL1        0.1401
     36 F         145.0043  141.8191  160.9275 F       1  UNL1       -0.2042
     37 C         142.5234  141.9734  161.6836 C.ar    1  UNL1        0.0293
     38 C         141.1987  141.3161  161.9351 C.ar    1  UNL1       -0.0017
     39 C         139.2117  139.0115  163.3390 C.ar    1  UNL1       -0.0183
     40 C         139.2674  137.6602  163.9877 C.ar    1  UNL1       -0.0017
     41 C         138.7734  137.4819  165.3927 C.ar    1  UNL1        0.0293
     42 C         138.2237  138.6548  166.1490 C.ar    1  UNL1        0.1401
     43 F         137.7296  138.4765  167.5540 F       1  UNL1       -0.2042
     44 C         138.1679  140.0061  165.5003 C.ar    1  UNL1        0.0293
     45 C         138.6619  140.1845  164.0952 C.ar    1  UNL1       -0.0017
@<TRIPOS>BOND
     1    18    19    1
     2    19    20    1
     3    19    21    1
     4    19    10    1
     5    10    11   ar
     6    11    12   ar
     7    12     9    1
     8     9     7    1
     9     7     6    1
    10     6     1    1
    11     1     2    1
    12     2     3    1
    13     3     4    1
    14     4    26    1
    15    26    27    1
    16    27    28    1
    17    28    29    1
    18    29    30    1
    19    30    31    1
    20    31    32    1
    21    32    33   ar
    22    33    34   ar
    23    34    35   ar
    24    35    36    1
    25    35    37   ar
    26    37    38   ar
    27    31    39    1
    28    39    40   ar
    29    40    41   ar
    30    41    42   ar
    31    42    43    1
    32    42    44   ar
    33    44    45   ar
    34     4     5    1
    35    12    13   ar
    36    13    14   ar
    37    14    22    1
    38    22    23    1
    39    22    24    1
    40    22    25    1
    41    14    15   ar
    42    15    16    1
    43    15    10   ar
    44     5     1    1
    45    38    32   ar
    46    45    39   ar
    47     7     8    1
    48    16    17    1
@<TRIPOS>MOLECULE
*****
 45 48 0 0 0
SMALL
GASTEIGER

@<TRIPOS>ATOM
      1 C         139.3563  144.4462  161.8898 C.3     1  UNL1        0.0331
      2 C         138.3137  143.4112  162.1927 C.3     1  UNL1        0.0201
      3 C         138.0914  142.5997  160.9509 C.3     1  UNL1        0.0722
      4 N         138.9966  143.1332  159.8804 N.3     1  UNL1       -0.2726
      5 C         139.7784  144.2744  160.4607 C.3     1  UNL1        0.0735
      6 C         139.8841  145.4727  162.8477 C.3     1  UNL1        0.0702
      7 N         140.4920  145.0413  164.1494 N.3     1  UNL1       -0.2937
      8 H         141.3856  144.6032  163.9261 H       1  UNL1        0.1236
      9 C         139.7539  144.0889  165.0428 C.3     1  UNL1        0.0956
     10 C         141.0577  142.0397  168.1814 C.ar    1  UNL1        0.0103
     11 C         140.2978  143.0333  167.3536 C.ar    1  UNL1       -0.0042
     12 C         140.5139  143.0953  165.8705 C.ar    1  UNL1       -0.0068
     13 C         141.4898  142.1636  165.2152 C.ar    1  UNL1       -0.0042
     14 C         142.2497  141.1700  166.0430 C.ar    1  UNL1        0.0103
     15 C         142.0337  141.1080  167.5261 C.ar    1  UNL1        0.1255
     16 O         142.7936  140.1144  168.3538 O.3     1  UNL1       -0.5061
     17 H         143.4033  139.5324  167.9445 H       1  UNL1        0.2922
     18 C         139.7690  140.9484  169.4652 C.3     1  UNL1        0.0045
     19 C         140.8417  141.9778  169.6644 C.3     1  UNL1        0.0218
     20 C         141.9143  143.0072  169.8637 C.3     1  UNL1        0.0045
     21 C         140.6256  141.9158  171.1475 C.3     1  UNL1        0.0045
     22 C         143.2257  140.2382  165.3877 C.3     1  UNL1        0.0218
     23 C         144.1316  141.3962  165.0904 C.3     1  UNL1        0.0045
     24 C         142.3198  139.0803  165.6850 C.3     1  UNL1        0.0045
     25 C         144.2017  139.3065  164.7325 C.3     1  UNL1        0.0045
     26 C         139.1017  142.6164  158.4762 C.3     1  UNL1        0.0721
     27 C         138.6275  141.2315  158.1493 C.3     1  UNL1        0.0173
     28 C         139.3104  140.0420  158.7565 C.3     1  UNL1        0.0014
     29 C         138.6265  139.2534  159.8338 C.3     1  UNL1        0.0007
     30 C         139.4362  138.4166  160.7795 C.3     1  UNL1        0.0087
     31 C         140.1123  139.0559  161.9560 C.3     1  UNL1        0.0446
     32 C         139.4907  138.9663  163.3181 C.ar    1  UNL1       -0.0183
     33 C         139.4538  137.6523  164.0406 C.ar    1  UNL1       -0.0017
     34 C         138.8321  137.5626  165.4028 C.ar    1  UNL1        0.0293
     35 C         138.2475  138.7869  166.0424 C.ar    1  UNL1        0.1401
     36 F         137.6258  138.6973  167.4047 F       1  UNL1       -0.2042
     37 C         138.2844  140.1009  165.3199 C.ar    1  UNL1        0.0293
     38 C         138.9061  140.1906  163.9577 C.ar    1  UNL1       -0.0017
     39 C         141.4101  139.7849  161.7702 C.ar    1  UNL1       -0.0183
     40 C         141.4540  141.2798  161.8865 C.ar    1  UNL1       -0.0017
     41 C         142.7518  142.0087  161.7007 C.ar    1  UNL1        0.0293
     42 C         144.0056  141.2427  161.3986 C.ar    1  UNL1        0.1401
     43 F         145.3034  141.9716  161.2129 F       1  UNL1       -0.2042
     44 C         143.9617  139.7479  161.2824 C.ar    1  UNL1        0.0293
     45 C         142.6639  139.0189  161.4681 C.ar    1  UNL1       -0.0017
@<TRIPOS>BOND
     1    18    19    1
     2    19    20    1
     3    19    21    1
     4    19    10    1
     5    10    11   ar
     6    11    12   ar
     7    12     9    1
     8     9     7    1
     9     7     6    1
    10     6     1    1
    11     1     2    1
    12     2     3    1
    13     3     4    1
    14     4    26    1
    15    26    27    1
    16    27    28    1
    17    28    29    1
    18    29    30    1
    19    30    31    1
    20    31    32    1
    21    32    33   ar
    22    33    34   ar
    23    34    35   ar
    24    35    36    1
    25    35    37   ar
    26    37    38   ar
    27    31    39    1
    28    39    40   ar
    29    40    41   ar
    30    41    42   ar
    31    42    43    1
    32    42    44   ar
    33    44    45   ar
    34     4     5    1
    35    12    13   ar
    36    13    14   ar
    37    14    22    1
    38    22    23    1
    39    22    24    1
    40    22    25    1
    41    14    15   ar
    42    15    16    1
    43    15    10   ar
    44     5     1    1
    45    38    32   ar
    46    45    39   ar
    47     7     8    1
    48    16    17    1
@<TRIPOS>MOLECULE
*****
 45 48 0 0 0
SMALL
GASTEIGER

@<TRIPOS>ATOM
      1 C         139.4275  144.4405  161.7681 C.3     1  UNL1        0.0331
      2 C         138.3914  143.4242  162.1471 C.3     1  UNL1        0.0201
      3 C         138.0941  142.5913  160.9356 C.3     1  UNL1        0.0722
      4 N         138.9464  143.0928  159.8078 N.3     1  UNL1       -0.2726
      5 C         139.7705  144.2357  160.3223 C.3     1  UNL1        0.0735
      6 C         140.0171  145.4792  162.6756 C.3     1  UNL1        0.0702
      7 N         140.6338  145.0720  163.9808 N.3     1  UNL1       -0.2937
      8 H         141.5064  144.5934  163.7576 H       1  UNL1        0.1236
      9 C         139.8788  144.1796  164.9210 C.3     1  UNL1        0.0956
     10 C         142.3735  141.2442  165.8749 C.ar    1  UNL1        0.0103
     11 C         141.6410  142.2763  165.0698 C.ar    1  UNL1       -0.0042
     12 C         140.6113  143.1475  165.7261 C.ar    1  UNL1       -0.0068
     13 C         140.3140  142.9865  167.1875 C.ar    1  UNL1       -0.0042
     14 C         141.0465  141.9544  167.9926 C.ar    1  UNL1        0.0103
     15 C         142.0762  141.0832  167.3362 C.ar    1  UNL1        0.1255
     16 O         142.8087  140.0511  168.1414 O.3     1  UNL1       -0.5061
     17 H         142.6230  139.9505  169.0543 H       1  UNL1        0.2922
     18 C         144.2835  141.5698  165.0112 C.3     1  UNL1        0.0045
     19 C         143.4033  140.3731  165.2186 C.3     1  UNL1        0.0218
     20 C         142.5230  139.1763  165.4259 C.3     1  UNL1        0.0045
     21 C         144.4330  139.5019  164.5622 C.3     1  UNL1        0.0045
     22 C         140.7492  141.7933  169.4540 C.3     1  UNL1        0.0218
     23 C         141.7329  142.8796  169.7738 C.3     1  UNL1        0.0045
     24 C         139.7655  140.7071  169.1342 C.3     1  UNL1        0.0045
     25 C         140.4520  141.6323  170.9154 C.3     1  UNL1        0.0045
     26 C         138.9704  142.5473  158.4107 C.3     1  UNL1        0.0721
     27 C         138.4252  141.1783  158.1306 C.3     1  UNL1        0.0173
     28 C         139.1420  139.9656  158.6459 C.3     1  UNL1        0.0014
     29 C         138.5907  139.2104  159.8188 C.3     1  UNL1        0.0007
     30 C         139.5128  138.4333  160.7111 C.3     1  UNL1        0.0087
     31 C         140.1675  139.1060  161.8811 C.3     1  UNL1        0.0446
     32 C         139.5397  139.0240  163.2409 C.ar    1  UNL1       -0.0183
     33 C         139.4611  137.7057  163.9523 C.ar    1  UNL1       -0.0017
     34 C         138.8334  137.6236  165.3122 C.ar    1  UNL1        0.0293
     35 C         138.2842  138.8597  165.9606 C.ar    1  UNL1        0.1401
     36 F         137.6564  138.7777  167.3205 F       1  UNL1       -0.2042
     37 C         138.3629  140.1780  165.2491 C.ar    1  UNL1        0.0293
     38 C         138.9906  140.2601  163.8893 C.ar    1  UNL1       -0.0017
     39 C         141.4499  139.8607  161.6913 C.ar    1  UNL1       -0.0183
     40 C         141.4590  141.3581  161.7792 C.ar    1  UNL1       -0.0017
     41 C         142.7414  142.1127  161.5893 C.ar    1  UNL1        0.0293
     42 C         144.0147  141.3699  161.3115 C.ar    1  UNL1        0.1401
     43 F         145.2970  142.1245  161.1217 F       1  UNL1       -0.2042
     44 C         144.0055  139.8725  161.2236 C.ar    1  UNL1        0.0293
     45 C         142.7231  139.1178  161.4135 C.ar    1  UNL1       -0.0017
@<TRIPOS>BOND
     1    18    19    1
     2    19    20    1
     3    19    21    1
     4    19    10    1
     5    10    11   ar
     6    11    12   ar
     7    12     9    1
     8     9     7    1
     9     7     6    1
    10     6     1    1
    11     1     2    1
    12     2     3    1
    13     3     4    1
    14     4    26    1
    15    26    27    1
    16    27    28    1
    17    28    29    1
    18    29    30    1
    19    30    31    1
    20    31    32    1
    21    32    33   ar
    22    33    34   ar
    23    34    35   ar
    24    35    36    1
    25    35    37   ar
    26    37    38   ar
    27    31    39    1
    28    39    40   ar
    29    40    41   ar
    30    41    42   ar
    31    42    43    1
    32    42    44   ar
    33    44    45   ar
    34     4     5    1
    35    12    13   ar
    36    13    14   ar
    37    14    22    1
    38    22    23    1
    39    22    24    1
    40    22    25    1
    41    14    15   ar
    42    15    16    1
    43    15    10   ar
    44     5     1    1
    45    38    32   ar
    46    45    39   ar
    47     7     8    1
    48    16    17    1
@<TRIPOS>MOLECULE
*****
 45 48 0 0 0
SMALL
GASTEIGER

@<TRIPOS>ATOM
      1 C         143.1390  144.2749  162.5125 C.3     1  UNL1        0.0331
      2 C         142.2972  145.1661  163.3770 C.3     1  UNL1        0.0201
      3 C         141.0960  145.5836  162.5815 C.3     1  UNL1        0.0722
      4 N         141.1954  144.9504  161.2253 N.3     1  UNL1       -0.2726
      5 C         142.4579  144.1416  161.1827 C.3     1  UNL1        0.0735
      6 C         144.4342  143.6303  162.9083 C.3     1  UNL1        0.0702
      7 N         144.5612  142.9607  164.2445 N.3     1  UNL1       -0.2937
      8 H         145.5311  143.0736  164.5395 H       1  UNL1        0.1236
      9 C         144.2316  141.5044  164.3880 C.3     1  UNL1        0.0956
     10 C         141.8250  141.2610  167.5343 C.ar    1  UNL1        0.0103
     11 C         142.9504  141.6907  166.6405 C.ar    1  UNL1       -0.0042
     12 C         143.1062  141.0746  165.2818 C.ar    1  UNL1       -0.0068
     13 C         142.1367  140.0288  164.8168 C.ar    1  UNL1       -0.0042
     14 C         141.0113  139.5991  165.7106 C.ar    1  UNL1        0.0103
     15 C         140.8555  140.2152  167.0693 C.ar    1  UNL1        0.1255
     16 O         139.7301  139.7854  167.9631 O.3     1  UNL1       -0.5061
     17 H         139.1244  139.1321  167.6727 H       1  UNL1        0.2922
     18 C         142.6604  140.8988  169.4503 C.3     1  UNL1        0.0045
     19 C         141.6692  141.8771  168.8930 C.3     1  UNL1        0.0218
     20 C         140.6781  142.8554  168.3357 C.3     1  UNL1        0.0045
     21 C         141.5134  142.4932  170.2517 C.3     1  UNL1        0.0045
     22 C         140.0417  138.5532  165.2457 C.3     1  UNL1        0.0218
     23 C         138.9150  139.5325  165.3922 C.3     1  UNL1        0.0045
     24 C         141.1684  137.5739  165.0991 C.3     1  UNL1        0.0045
     25 C         139.0722  137.5074  164.7808 C.3     1  UNL1        0.0045
     26 C         140.2058  145.0997  160.1079 C.3     1  UNL1        0.0721
     27 C         140.4233  144.3765  158.8119 C.3     1  UNL1        0.0173
     28 C         139.9425  142.9648  158.6510 C.3     1  UNL1        0.0014
     29 C         138.5634  142.5860  159.1036 C.3     1  UNL1        0.0007
     30 C         138.3801  141.4988  160.1207 C.3     1  UNL1        0.0087
     31 C         139.2773  141.4359  161.3212 C.3     1  UNL1        0.0446
     32 C         140.4085  140.4518  161.3613 C.ar    1  UNL1       -0.0183
     33 C         141.8205  140.9244  161.1800 C.ar    1  UNL1       -0.0017
     34 C         142.9518  139.9403  161.2200 C.ar    1  UNL1        0.0293
     35 C         142.6711  138.4836  161.4415 C.ar    1  UNL1        0.1401
     36 F         143.8025  137.4993  161.4815 F       1  UNL1       -0.2042
     37 C         141.2591  138.0109  161.6228 C.ar    1  UNL1        0.0293
     38 C         140.1278  138.9950  161.5827 C.ar    1  UNL1       -0.0017
     39 C         139.0431  142.3572  162.4816 C.ar    1  UNL1       -0.0183
     40 C         137.9196  143.3501  162.4362 C.ar    1  UNL1       -0.0017
     41 C         137.6855  144.2714  163.5965 C.ar    1  UNL1        0.0293
     42 C         138.5748  144.1998  164.8023 C.ar    1  UNL1        0.1401
     43 F         138.3407  145.1210  165.9627 F       1  UNL1       -0.2042
     44 C         139.6983  143.2069  164.8478 C.ar    1  UNL1        0.0293
     45 C         139.9325  142.2856  163.6874 C.ar    1  UNL1       -0.0017
@<TRIPOS>BOND
     1    18    19    1
     2    19    20    1
     3    19    21    1
     4    19    10    1
     5    10    11   ar
     6    11    12   ar
     7    12     9    1
     8     9     7    1
     9     7     6    1
    10     6     1    1
    11     1     2    1
    12     2     3    1
    13     3     4    1
    14     4    26    1
    15    26    27    1
    16    27    28    1
    17    28    29    1
    18    29    30    1
    19    30    31    1
    20    31    32    1
    21    32    33   ar
    22    33    34   ar
    23    34    35   ar
    24    35    36    1
    25    35    37   ar
    26    37    38   ar
    27    31    39    1
    28    39    40   ar
    29    40    41   ar
    30    41    42   ar
    31    42    43    1
    32    42    44   ar
    33    44    45   ar
    34     4     5    1
    35    12    13   ar
    36    13    14   ar
    37    14    22    1
    38    22    23    1
    39    22    24    1
    40    22    25    1
    41    14    15   ar
    42    15    16    1
    43    15    10   ar
    44     5     1    1
    45    38    32   ar
    46    45    39   ar
    47     7     8    1
    48    16    17    1
