@<TRIPOS>MOLECULE
*****
 16 17 0 0 0
SMALL
GASTEIGER

@<TRIPOS>ATOM
      1 C         140.3588  144.1590  169.9715 C.3     1  UNL1        0.0319
      2 C         141.1101  142.9558  169.4840 C.ar    1  UNL1       -0.0116
      3 C         140.4655  142.0120  168.5124 C.ar    1  UNL1       -0.0076
      4 C         141.2168  140.8088  168.0248 C.ar    1  UNL1       -0.0211
      5 C         142.6126  140.5493  168.5088 C.ar    1  UNL1       -0.0034
      6 C         143.2573  141.4930  169.4804 C.ar    1  UNL1        0.0108
      7 C         142.5059  142.6963  169.9680 C.ar    1  UNL1        0.0537
      8 CL        143.1504  143.6399  170.9395 Cl      1  UNL1       -0.0826
      9 C         140.5723  139.8650  167.0532 C.3     1  UNL1        0.0426
     10 C         139.1260  139.5578  167.3064 C.3     1  UNL1        0.0315
     11 C         138.2095  138.6629  166.5258 C.2     1  UNL1       -0.0289
     12 C         138.5129  137.8544  165.2994 C.2     1  UNL1       -0.0134
     13 C         139.8076  137.7409  164.5506 C.3     1  UNL1        0.0986
     14 N         141.1189  138.4080  164.8433 N.3     1  UNL1       -0.2674
     15 C         142.2377  138.0874  163.8971 C.3     1  UNL1        0.0899
     16 C         141.4591  139.3533  165.9571 C.3     1  UNL1        0.0771
@<TRIPOS>BOND
     1     1     2    1
     2     2     3   ar
     3     3     4   ar
     4     4     9    1
     5     9    10    1
     6    10    11    1
     7    11    12    2
     8    12    13    1
     9    13    14    1
    10    14    15    1
    11    14    16    1
    12     4     5   ar
    13     5     6   ar
    14     6     7   ar
    15     7     8    1
    16     7     2   ar
    17    16     9    1
@<TRIPOS>MOLECULE
*****
 16 17 0 0 0
SMALL
GASTEIGER

@<TRIPOS>ATOM
      1 C         139.4619  140.3718  170.1199 C.3     1  UNL1        0.0319
      2 C         140.2281  140.0347  168.8752 C.ar    1  UNL1       -0.0116
      3 C         139.5079  139.8894  167.5674 C.ar    1  UNL1       -0.0076
      4 C         140.2741  139.5523  166.3227 C.ar    1  UNL1       -0.0211
      5 C         141.7604  139.3605  166.3857 C.ar    1  UNL1       -0.0034
      6 C         142.4807  139.5058  167.6934 C.ar    1  UNL1        0.0108
      7 C         141.7145  139.8429  168.9382 C.ar    1  UNL1        0.0537
      8 CL        142.4346  139.9882  170.2459 Cl      1  UNL1       -0.0826
      9 C         139.5539  139.4069  165.0149 C.3     1  UNL1        0.0426
     10 C         139.6273  138.0504  164.3789 C.3     1  UNL1        0.0315
     11 C         139.0205  137.5892  163.0868 C.2     1  UNL1       -0.0289
     12 C         138.1906  138.3705  162.1120 C.2     1  UNL1       -0.0134
     13 C         137.7623  139.8061  162.1881 C.3     1  UNL1        0.0986
     14 N         138.0583  140.8149  163.2580 N.3     1  UNL1       -0.2674
     15 C         137.4806  142.1820  163.0413 C.3     1  UNL1        0.0899
     16 C         138.8557  140.6371  164.5161 C.3     1  UNL1        0.0771
@<TRIPOS>BOND
     1     1     2    1
     2     2     3   ar
     3     3     4   ar
     4     4     9    1
     5     9    10    1
     6    10    11    1
     7    11    12    2
     8    12    13    1
     9    13    14    1
    10    14    15    1
    11    14    16    1
    12     4     5   ar
    13     5     6   ar
    14     6     7   ar
    15     7     8    1
    16     7     2   ar
    17    16     9    1
@<TRIPOS>MOLECULE
*****
 16 17 0 0 0
SMALL
GASTEIGER

@<TRIPOS>ATOM
      1 C         137.3466  141.5649  162.8201 C.3     1  UNL1        0.0319
      2 C         138.0805  140.3923  163.4001 C.ar    1  UNL1       -0.0116
      3 C         138.7808  140.5242  164.7201 C.ar    1  UNL1       -0.0076
      4 C         139.5147  139.3516  165.3001 C.ar    1  UNL1       -0.0211
      5 C         139.5483  138.0472  164.5602 C.ar    1  UNL1       -0.0034
      6 C         138.8481  137.9153  163.2403 C.ar    1  UNL1        0.0108
      7 C         138.1141  139.0879  162.6602 C.ar    1  UNL1        0.0537
      8 CL        137.4139  138.9561  161.3403 Cl      1  UNL1       -0.0826
      9 C         140.2150  139.4834  166.6200 C.3     1  UNL1        0.0426
     10 C         141.7035  139.3002  166.5881 C.3     1  UNL1        0.0315
     11 C         142.6789  139.3693  167.7257 C.2     1  UNL1       -0.0289
     12 C         142.4067  139.6386  169.1759 C.2     1  UNL1       -0.0134
     13 C         141.0920  139.9054  169.8469 C.3     1  UNL1        0.0986
     14 N         139.7247  139.9687  169.2334 N.3     1  UNL1       -0.2674
     15 C         138.5988  140.2581  170.1812 C.3     1  UNL1        0.0899
     16 C         139.3345  139.7809  167.7972 C.3     1  UNL1        0.0771
@<TRIPOS>BOND
     1     1     2    1
     2     2     3   ar
     3     3     4   ar
     4     4     9    1
     5     9    10    1
     6    10    11    1
     7    11    12    2
     8    12    13    1
     9    13    14    1
    10    14    15    1
    11    14    16    1
    12     4     5   ar
    13     5     6   ar
    14     6     7   ar
    15     7     8    1
    16     7     2   ar
    17    16     9    1
@<TRIPOS>MOLECULE
*****
 16 17 0 0 0
SMALL
GASTEIGER

@<TRIPOS>ATOM
      1 C         143.5740  142.3814  169.1082 C.3     1  UNL1        0.0319
      2 C         142.3061  141.7505  168.6141 C.ar    1  UNL1       -0.0116
      3 C         141.5677  142.3571  167.4578 C.ar    1  UNL1       -0.0076
      4 C         140.2997  141.7262  166.9636 C.ar    1  UNL1       -0.0211
      5 C         139.7702  140.4888  167.6256 C.ar    1  UNL1       -0.0034
      6 C         140.5085  139.8822  168.7819 C.ar    1  UNL1        0.0108
      7 C         141.7765  140.5131  169.2761 C.ar    1  UNL1        0.0537
      8 CL        142.5149  139.9065  170.4323 Cl      1  UNL1       -0.0826
      9 C         139.5613  142.3327  165.8074 C.3     1  UNL1        0.0426
     10 C         139.4942  143.8312  165.7920 C.3     1  UNL1        0.0315
     11 C         138.8368  144.7277  164.7848 C.2     1  UNL1       -0.0289
     12 C         138.0843  144.3471  163.5445 C.2     1  UNL1       -0.0134
     13 C         137.8031  142.9761  163.0047 C.3     1  UNL1        0.0986
     14 N         138.2052  141.6470  163.5721 N.3     1  UNL1       -0.2674
     15 C         137.7668  140.4454  162.7887 C.3     1  UNL1        0.0899
     16 C         138.9876  141.3608  164.8195 C.3     1  UNL1        0.0771
@<TRIPOS>BOND
     1     1     2    1
     2     2     3   ar
     3     3     4   ar
     4     4     9    1
     5     9    10    1
     6    10    11    1
     7    11    12    2
     8    12    13    1
     9    13    14    1
    10    14    15    1
    11    14    16    1
    12     4     5   ar
    13     5     6   ar
    14     6     7   ar
    15     7     8    1
    16     7     2   ar
    17    16     9    1
@<TRIPOS>MOLECULE
*****
 16 17 0 0 0
SMALL
GASTEIGER

@<TRIPOS>ATOM
      1 C         138.0964  138.9968  167.1670 C.3     1  UNL1        0.0319
      2 C         139.3318  139.7498  167.5629 C.ar    1  UNL1       -0.0116
      3 C         140.4358  139.9555  166.5683 C.ar    1  UNL1       -0.0076
      4 C         141.6712  140.7085  166.9641 C.ar    1  UNL1       -0.0211
      5 C         141.8028  141.2557  168.3545 C.ar    1  UNL1       -0.0034
      6 C         140.6989  141.0500  169.3491 C.ar    1  UNL1        0.0108
      7 C         139.4634  140.2970  168.9533 C.ar    1  UNL1        0.0537
      8 CL        138.3596  140.0913  169.9478 Cl      1  UNL1       -0.0826
      9 C         142.7751  140.9142  165.9696 C.3     1  UNL1        0.0426
     10 C         143.4826  139.6716  165.5163 C.3     1  UNL1        0.0315
     11 C         144.6153  139.5432  164.5413 C.2     1  UNL1       -0.0289
     12 C         145.3202  140.6256  163.7789 C.2     1  UNL1       -0.0134
     13 C         145.0666  142.1039  163.8031 C.3     1  UNL1        0.0986
     14 N         144.0454  142.8647  164.5957 N.3     1  UNL1       -0.2674
     15 C         144.0438  144.3515  164.3980 C.3     1  UNL1        0.0899
     16 C         143.0256  142.3352  165.5599 C.3     1  UNL1        0.0771
@<TRIPOS>BOND
     1     1     2    1
     2     2     3   ar
     3     3     4   ar
     4     4     9    1
     5     9    10    1
     6    10    11    1
     7    11    12    2
     8    12    13    1
     9    13    14    1
    10    14    15    1
    11    14    16    1
    12     4     5   ar
    13     5     6   ar
    14     6     7   ar
    15     7     8    1
    16     7     2   ar
    17    16     9    1
@<TRIPOS>MOLECULE
*****
 16 17 0 0 0
SMALL
GASTEIGER

@<TRIPOS>ATOM
      1 C         143.0236  142.1192  168.7066 C.3     1  UNL1        0.0319
      2 C         141.7212  141.3861  168.5800 C.ar    1  UNL1       -0.0116
      3 C         141.2342  140.9498  167.2299 C.ar    1  UNL1       -0.0076
      4 C         139.9318  140.2166  167.1034 C.ar    1  UNL1       -0.0211
      5 C         139.1162  139.9198  168.3267 C.ar    1  UNL1       -0.0034
      6 C         139.6031  140.3560  169.6768 C.ar    1  UNL1        0.0108
      7 C         140.9056  141.0892  169.8034 C.ar    1  UNL1        0.0537
      8 CL        141.3925  141.5255  171.1534 Cl      1  UNL1       -0.0826
      9 C         139.4448  139.7803  165.7534 C.3     1  UNL1        0.0426
     10 C         139.8070  138.3811  165.3519 C.3     1  UNL1        0.0315
     11 C         139.4738  137.6568  164.0812 C.2     1  UNL1       -0.0289
     12 C         138.6964  138.1529  162.8983 C.2     1  UNL1       -0.0134
     13 C         138.0599  139.4957  162.6938 C.3     1  UNL1        0.0986
     14 N         138.0438  140.6741  163.6217 N.3     1  UNL1       -0.2674
     15 C         137.3151  141.8861  163.1219 C.3     1  UNL1        0.0899
     16 C         138.6602  140.8007  164.9834 C.3     1  UNL1        0.0771
@<TRIPOS>BOND
     1     1     2    1
     2     2     3   ar
     3     3     4   ar
     4     4     9    1
     5     9    10    1
     6    10    11    1
     7    11    12    2
     8    12    13    1
     9    13    14    1
    10    14    15    1
    11    14    16    1
    12     4     5   ar
    13     5     6   ar
    14     6     7   ar
    15     7     8    1
    16     7     2   ar
    17    16     9    1
@<TRIPOS>MOLECULE
*****
 16 17 0 0 0
SMALL
GASTEIGER

@<TRIPOS>ATOM
      1 C         140.6215  142.8686  170.3614 C.3     1  UNL1        0.0319
      2 C         140.3620  142.2437  169.0228 C.ar    1  UNL1       -0.0116
      3 C         140.3281  143.0979  167.7902 C.ar    1  UNL1       -0.0076
      4 C         140.0686  142.4730  166.4515 C.ar    1  UNL1       -0.0211
      5 C         139.8430  140.9939  166.3453 C.ar    1  UNL1       -0.0034
      6 C         139.8768  140.1396  167.5778 C.ar    1  UNL1        0.0108
      7 C         140.1364  140.7646  168.9166 C.ar    1  UNL1        0.0537
      8 CL        140.1703  139.9104  170.1491 Cl      1  UNL1       -0.0826
      9 C         140.0347  143.3272  165.2189 C.3     1  UNL1        0.0426
     10 C         138.6695  143.6443  164.6843 C.3     1  UNL1        0.0315
     11 C         138.3028  144.4638  163.4826 C.2     1  UNL1       -0.0289
     12 C         139.2108  145.1686  162.5189 C.2     1  UNL1       -0.0134
     13 C         140.7096  145.2281  162.5187 C.3     1  UNL1        0.0986
     14 N         141.6707  144.5973  163.4823 N.3     1  UNL1       -0.2674
     15 C         143.1243  144.8453  163.2078 C.3     1  UNL1        0.0899
     16 C         141.3702  143.7513  164.6840 C.3     1  UNL1        0.0771
@<TRIPOS>BOND
     1     1     2    1
     2     2     3   ar
     3     3     4   ar
     4     4     9    1
     5     9    10    1
     6    10    11    1
     7    11    12    2
     8    12    13    1
     9    13    14    1
    10    14    15    1
    11    14    16    1
    12     4     5   ar
    13     5     6   ar
    14     6     7   ar
    15     7     8    1
    16     7     2   ar
    17    16     9    1
@<TRIPOS>MOLECULE
*****
 16 17 0 0 0
SMALL
GASTEIGER

@<TRIPOS>ATOM
      1 C         137.3902  141.0736  162.7081 C.3     1  UNL1        0.0319
      2 C         138.1521  140.1604  163.6221 C.ar    1  UNL1       -0.0116
      3 C         138.6250  140.6580  164.9559 C.ar    1  UNL1       -0.0076
      4 C         139.3868  139.7448  165.8699 C.ar    1  UNL1       -0.0211
      5 C         139.6758  138.3340  165.4503 C.ar    1  UNL1       -0.0034
      6 C         139.2029  137.8363  164.1166 C.ar    1  UNL1        0.0108
      7 C         138.4410  138.7496  163.2025 C.ar    1  UNL1        0.0537
      8 CL        137.9682  138.2520  161.8688 Cl      1  UNL1       -0.0826
      9 C         139.8597  140.2423  167.2037 C.3     1  UNL1        0.0426
     10 C         138.9717  139.9227  168.3696 C.3     1  UNL1        0.0315
     11 C         139.1628  140.2755  169.8151 C.2     1  UNL1       -0.0289
     12 C         140.2889  141.0349  170.4513 C.2     1  UNL1       -0.0134
     13 C         141.5022  141.6293  169.7996 C.3     1  UNL1        0.0986
     14 N         141.8889  141.6109  168.3504 N.3     1  UNL1       -0.2674
     15 C         143.1769  142.3010  168.0117 C.3     1  UNL1        0.0899
     16 C         141.1579  140.9936  167.1952 C.3     1  UNL1        0.0771
@<TRIPOS>BOND
     1     1     2    1
     2     2     3   ar
     3     3     4   ar
     4     4     9    1
     5     9    10    1
     6    10    11    1
     7    11    12    2
     8    12    13    1
     9    13    14    1
    10    14    15    1
    11    14    16    1
    12     4     5   ar
    13     5     6   ar
    14     6     7   ar
    15     7     8    1
    16     7     2   ar
    17    16     9    1
@<TRIPOS>MOLECULE
*****
 16 17 0 0 0
SMALL
GASTEIGER

@<TRIPOS>ATOM
      1 C         138.5051  139.0534  167.1434 C.3     1  UNL1        0.0319
      2 C         139.3617  140.2308  167.5038 C.ar    1  UNL1       -0.0116
      3 C         140.1419  140.9444  166.4397 C.ar    1  UNL1       -0.0076
      4 C         140.9984  142.1219  166.8002 C.ar    1  UNL1       -0.0211
      5 C         141.0748  142.5858  168.2246 C.ar    1  UNL1       -0.0034
      6 C         140.2946  141.8723  169.2886 C.ar    1  UNL1        0.0108
      7 C         139.4380  140.6947  168.9282 C.ar    1  UNL1        0.0537
      8 CL        138.6579  139.9812  169.9922 Cl      1  UNL1       -0.0826
      9 C         141.7787  142.8355  165.7362 C.3     1  UNL1        0.0426
     10 C         143.2606  142.6032  165.7497 C.3     1  UNL1        0.0315
     11 C         144.3037  143.1651  164.8297 C.2     1  UNL1       -0.0289
     12 C         144.1225  144.0979  163.6692 C.2     1  UNL1       -0.0134
     13 C         142.8536  144.6993  163.1418 C.3     1  UNL1        0.0986
     14 N         141.4523  144.5164  163.6449 N.3     1  UNL1       -0.2674
     15 C         140.3888  145.2614  162.8940 C.3     1  UNL1        0.0899
     16 C         140.9740  143.6868  164.7995 C.3     1  UNL1        0.0771
@<TRIPOS>BOND
     1     1     2    1
     2     2     3   ar
     3     3     4   ar
     4     4     9    1
     5     9    10    1
     6    10    11    1
     7    11    12    2
     8    12    13    1
     9    13    14    1
    10    14    15    1
    11    14    16    1
    12     4     5   ar
    13     5     6   ar
    14     6     7   ar
    15     7     8    1
    16     7     2   ar
    17    16     9    1
