@<TRIPOS>MOLECULE
*****
 36 40 0 0 0
SMALL
GASTEIGER

@<TRIPOS>ATOM
      1 N         139.5173  139.5215  160.6896 N.3     1  UNL1       -0.2687
      2 C         140.6961  138.7832  160.1281 C.3     1  UNL1        0.0724
      3 C         141.7374  139.5214  159.3402 C.3     1  UNL1        0.0177
      4 C         141.5998  140.9978  159.1138 C.3     1  UNL1        0.0072
      5 C         140.4209  141.7361  159.6754 C.3     1  UNL1        0.0399
      6 C         139.3798  140.9979  160.4633 C.3     1  UNL1        0.0768
      7 C         140.2834  143.2126  159.4490 C.2     1  UNL1       -0.0024
      8 C         140.0469  144.2486  160.5077 C.2     1  UNL1        0.0770
      9 N         139.9756  145.5885  159.8372 N.2     1  UNL1       -0.2497
     10 C         140.1680  145.3805  158.3641 C.2     1  UNL1        0.0630
     11 C         140.1945  146.3386  157.2103 C.3     1  UNL1        0.0717
     12 C         140.4113  145.8282  155.8166 C.2     1  UNL1       -0.0198
     13 C         140.6016  144.3598  155.5767 C.2     1  UNL1       -0.0042
     14 C         140.5750  143.4017  156.7306 C.2     1  UNL1        0.0006
     15 C         140.3582  143.9121  158.1243 C.2     1  UNL1        0.0114
     16 C         139.9065  143.9901  161.9785 C.ar    1  UNL1        0.0173
     17 C         138.5769  144.1725  162.6485 C.ar    1  UNL1        0.0015
     18 C         138.4364  143.9141  164.1193 C.ar    1  UNL1        0.0000
     19 C         139.6255  143.4731  164.9203 C.ar    1  UNL1        0.0000
     20 C         140.9551  143.2907  164.2504 C.ar    1  UNL1        0.0000
     21 C         141.0956  143.5492  162.7795 C.ar    1  UNL1        0.0015
     22 C         138.4760  138.7833  161.4775 C.3     1  UNL1        0.0992
     23 C         138.4451  139.0490  165.9696 C.ar    1  UNL1        0.0001
     24 C         138.8111  137.7592  165.2971 C.ar    1  UNL1       -0.0003
     25 C         138.8213  137.6706  163.7998 C.ar    1  UNL1       -0.0029
     26 C         138.4657  138.8719  162.9749 C.ar    1  UNL1       -0.0061
     27 C         138.0998  140.1618  163.6474 C.ar    1  UNL1       -0.0029
     28 C         138.0895  140.2504  165.1448 C.ar    1  UNL1       -0.0003
     29 C         139.3693  140.0776  168.1691 C.2     1  UNL1        0.0598
     30 C         138.4348  139.1377  167.4669 C.2     1  UNL1        0.0047
     31 O         138.0869  139.9234  170.4233 O.2     1  UNL1       -0.2681
     32 C         139.3590  140.1662  169.6665 C.2     1  UNL1        0.2679
     33 N         140.6207  140.4975  170.4069 N.am    1  UNL1       -0.1934
     34 O         140.6104  140.5861  171.9042 O.3     1  UNL1       -0.2949
     35 H         141.4556  140.6569  169.9101 H       1  UNL1        0.1825
     36 H         139.7163  140.4031  172.2328 H       1  UNL1        0.2414
@<TRIPOS>BOND
     1    31    32    2
     2    32    29    1
     3    29    30    2
     4    30    23    1
     5    23    24   ar
     6    24    25   ar
     7    25    26   ar
     8    26    22    1
     9    22     1    1
    10     1     2    1
    11     2     3    1
    12     3     4    1
    13     4     5    1
    14     5     7    1
    15     7     8    2
    16     8    16    1
    17    16    17   ar
    18    17    18   ar
    19    18    19   ar
    20    19    20   ar
    21    20    21   ar
    22     8     9    1
    23     9    10    2
    24    10    11    1
    25    11    12    1
    26    12    13    2
    27    13    14    1
    28    14    15    2
    29     5     6    1
    30    26    27   ar
    31    27    28   ar
    32    32    33   am
    33    33    34    1
    34    28    23   ar
    35     6     1    1
    36    15     7    1
    37    21    16   ar
    38    15    10    1
    39    33    35    1
    40    34    36    1
@<TRIPOS>MOLECULE
*****
 36 40 0 0 0
SMALL
GASTEIGER

@<TRIPOS>ATOM
      1 N         138.4893  141.1496  162.2191 N.3     1  UNL1       -0.2687
      2 C         138.3310  142.4379  161.4673 C.3     1  UNL1        0.0724
      3 C         139.1186  142.6759  160.2131 C.3     1  UNL1        0.0177
      4 C         140.0643  141.6256  159.7107 C.3     1  UNL1        0.0072
      5 C         140.2226  140.3372  160.4626 C.3     1  UNL1        0.0399
      6 C         139.4351  140.0993  161.7167 C.3     1  UNL1        0.0768
      7 C         141.1684  139.2869  159.9601 C.2     1  UNL1       -0.0024
      8 C         142.0067  138.3770  160.8082 C.2     1  UNL1        0.0770
      9 N         142.7983  137.4899  159.8936 N.2     1  UNL1       -0.2497
     10 C         142.4491  137.8515  158.4803 C.2     1  UNL1        0.0630
     11 C         142.9183  137.3130  157.1613 C.3     1  UNL1        0.0717
     12 C         142.3801  137.8851  155.8835 C.2     1  UNL1       -0.0198
     13 C         141.3728  138.9958  155.9246 C.2     1  UNL1       -0.0042
     14 C         140.9036  139.5343  157.2436 C.2     1  UNL1        0.0006
     15 C         141.4417  138.9622  158.5215 C.2     1  UNL1        0.0114
     16 C         142.0466  138.3576  162.3075 C.ar    1  UNL1        0.0173
     17 C         141.1866  137.3923  163.0682 C.ar    1  UNL1        0.0015
     18 C         141.2265  137.3730  164.5676 C.ar    1  UNL1        0.0000
     19 C         142.1262  138.3188  165.3062 C.ar    1  UNL1        0.0000
     20 C         142.9862  139.2841  164.5455 C.ar    1  UNL1        0.0000
     21 C         142.9463  139.3035  163.0462 C.ar    1  UNL1        0.0015
     22 C         137.7017  140.9116  163.4734 C.3     1  UNL1        0.0992
     23 C         139.8366  140.1166  167.3542 C.ar    1  UNL1        0.0001
     24 C         138.7414  139.1984  166.8989 C.ar    1  UNL1       -0.0003
     25 C         138.0298  139.4634  165.6053 C.ar    1  UNL1       -0.0029
     26 C         138.4134  140.6467  164.7669 C.ar    1  UNL1       -0.0061
     27 C         139.5086  141.5649  165.2223 C.ar    1  UNL1       -0.0029
     28 C         140.2202  141.2999  166.5159 C.ar    1  UNL1       -0.0003
     29 C         141.5366  140.8477  169.1778 C.2     1  UNL1        0.0598
     30 C         140.5482  139.8517  168.6478 C.2     1  UNL1        0.0047
     31 O         141.8033  141.2721  171.7270 O.2     1  UNL1       -0.2681
     32 C         142.2482  140.5827  170.4714 C.2     1  UNL1        0.2679
     33 N         143.4047  139.6282  170.5093 N.am    1  UNL1       -0.1934
     34 O         144.1164  139.3631  171.8028 O.3     1  UNL1       -0.2949
     35 H         143.6967  139.1757  169.6851 H       1  UNL1        0.1825
     36 H         143.7061  139.8846  172.5103 H       1  UNL1        0.2414
@<TRIPOS>BOND
     1    31    32    2
     2    32    29    1
     3    29    30    2
     4    30    23    1
     5    23    24   ar
     6    24    25   ar
     7    25    26   ar
     8    26    22    1
     9    22     1    1
    10     1     2    1
    11     2     3    1
    12     3     4    1
    13     4     5    1
    14     5     7    1
    15     7     8    2
    16     8    16    1
    17    16    17   ar
    18    17    18   ar
    19    18    19   ar
    20    19    20   ar
    21    20    21   ar
    22     8     9    1
    23     9    10    2
    24    10    11    1
    25    11    12    1
    26    12    13    2
    27    13    14    1
    28    14    15    2
    29     5     6    1
    30    26    27   ar
    31    27    28   ar
    32    32    33   am
    33    33    34    1
    34    28    23   ar
    35     6     1    1
    36    15     7    1
    37    21    16   ar
    38    15    10    1
    39    33    35    1
    40    34    36    1
@<TRIPOS>MOLECULE
*****
 36 40 0 0 0
SMALL
GASTEIGER

@<TRIPOS>ATOM
      1 N         137.9247  141.5226  161.7823 N.3     1  UNL1       -0.2687
      2 C         137.7149  140.2823  160.9654 C.3     1  UNL1        0.0724
      3 C         138.3191  140.1746  159.5967 C.3     1  UNL1        0.0177
      4 C         139.1332  141.3072  159.0450 C.3     1  UNL1        0.0072
      5 C         139.3431  142.5477  159.8621 C.3     1  UNL1        0.0399
      6 C         138.7388  142.6553  161.2307 C.3     1  UNL1        0.0768
      7 C         140.1571  143.6803  159.3104 C.2     1  UNL1       -0.0024
      8 C         141.2520  144.4113  160.0294 C.2     1  UNL1        0.0770
      9 N         141.7907  145.4636  159.1062 N.2     1  UNL1       -0.2497
     10 C         141.0289  145.3830  157.8165 C.2     1  UNL1        0.0630
     11 C         141.1242  146.1707  156.5436 C.3     1  UNL1        0.0717
     12 C         140.2098  145.8564  155.3969 C.2     1  UNL1       -0.0198
     13 C         139.2001  144.7542  155.5231 C.2     1  UNL1       -0.0042
     14 C         139.1049  143.9665  156.7960 C.2     1  UNL1        0.0006
     15 C         140.0193  144.2808  157.9427 C.2     1  UNL1        0.0114
     16 C         141.7249  144.1380  161.4264 C.ar    1  UNL1        0.0173
     17 C         141.4568  145.1323  162.5170 C.ar    1  UNL1        0.0015
     18 C         141.9298  144.8590  163.9140 C.ar    1  UNL1        0.0000
     19 C         142.6709  143.5913  164.2204 C.ar    1  UNL1        0.0000
     20 C         142.9390  142.5970  163.1298 C.ar    1  UNL1        0.0000
     21 C         142.4660  142.8704  161.7328 C.ar    1  UNL1        0.0015
     22 C         137.3204  141.6303  163.1510 C.3     1  UNL1        0.0992
     23 C         139.9499  142.4243  166.7156 C.ar    1  UNL1        0.0001
     24 C         139.6224  141.0137  166.3245 C.ar    1  UNL1       -0.0003
     25 C         138.7459  140.7491  165.1363 C.ar    1  UNL1       -0.0029
     26 C         138.1969  141.8950  164.3391 C.ar    1  UNL1       -0.0061
     27 C         138.5244  143.3056  164.7302 C.ar    1  UNL1       -0.0029
     28 C         139.4009  143.5703  165.9184 C.ar    1  UNL1       -0.0003
     29 C         140.2890  142.4937  169.2905 C.2     1  UNL1        0.0598
     30 C         140.8263  142.6890  167.9037 C.2     1  UNL1        0.0047
     31 O         140.7970  142.2012  171.8216 O.2     1  UNL1       -0.2681
     32 C         141.1656  142.7584  170.4786 C.2     1  UNL1        0.2679
     33 N         142.4107  143.5804  170.3236 N.am    1  UNL1       -0.1934
     34 O         143.2873  143.8452  171.5117 O.3     1  UNL1       -0.2949
     35 H         142.6526  143.9461  169.4422 H       1  UNL1        0.1825
     36 H         142.9082  143.4168  172.2951 H       1  UNL1        0.2414
@<TRIPOS>BOND
     1    31    32    2
     2    32    29    1
     3    29    30    2
     4    30    23    1
     5    23    24   ar
     6    24    25   ar
     7    25    26   ar
     8    26    22    1
     9    22     1    1
    10     1     2    1
    11     2     3    1
    12     3     4    1
    13     4     5    1
    14     5     7    1
    15     7     8    2
    16     8    16    1
    17    16    17   ar
    18    17    18   ar
    19    18    19   ar
    20    19    20   ar
    21    20    21   ar
    22     8     9    1
    23     9    10    2
    24    10    11    1
    25    11    12    1
    26    12    13    2
    27    13    14    1
    28    14    15    2
    29     5     6    1
    30    26    27   ar
    31    27    28   ar
    32    32    33   am
    33    33    34    1
    34    28    23   ar
    35     6     1    1
    36    15     7    1
    37    21    16   ar
    38    15    10    1
    39    33    35    1
    40    34    36    1
@<TRIPOS>MOLECULE
*****
 36 40 0 0 0
SMALL
GASTEIGER

@<TRIPOS>ATOM
      1 N         143.9164  141.7434  164.1147 N.3     1  UNL1       -0.2687
      2 C         144.7726  140.5588  163.7775 C.3     1  UNL1        0.0724
      3 C         144.5078  139.2329  164.4269 C.3     1  UNL1        0.0177
      4 C         143.3868  139.0915  165.4135 C.3     1  UNL1        0.0072
      5 C         142.5305  140.2762  165.7507 C.3     1  UNL1        0.0399
      6 C         142.7954  141.6020  165.1013 C.3     1  UNL1        0.0768
      7 C         141.4096  140.1348  166.7374 C.2     1  UNL1       -0.0024
      8 C         140.0104  139.6935  166.4249 C.2     1  UNL1        0.0770
      9 N         139.2271  139.6959  167.7041 N.2     1  UNL1       -0.2497
     10 C         140.1421  140.1387  168.8072 C.2     1  UNL1        0.0630
     11 C         139.9213  140.3299  170.2784 C.3     1  UNL1        0.0717
     12 C         141.0494  140.7924  171.1522 C.2     1  UNL1       -0.0198
     13 C         142.3983  141.0637  170.5547 C.2     1  UNL1       -0.0042
     14 C         142.6190  140.8724  169.0834 C.2     1  UNL1        0.0006
     15 C         141.4910  140.4100  168.2097 C.2     1  UNL1        0.0114
     16 C         139.4866  139.3161  165.0709 C.ar    1  UNL1        0.0173
     17 C         138.6347  140.2809  164.3007 C.ar    1  UNL1        0.0015
     18 C         138.1109  139.9035  162.9467 C.ar    1  UNL1        0.0000
     19 C         138.4389  138.5612  162.3631 C.ar    1  UNL1        0.0000
     20 C         139.2907  137.5964  163.1334 C.ar    1  UNL1        0.0000
     21 C         139.8146  137.9738  164.4873 C.ar    1  UNL1        0.0015
     22 C         144.1812  143.0693  163.4653 C.3     1  UNL1        0.0992
     23 C         141.3175  144.6811  160.3909 C.ar    1  UNL1        0.0001
     24 C         141.1830  145.0893  161.8280 C.ar    1  UNL1       -0.0003
     25 C         142.1376  144.5520  162.8528 C.ar    1  UNL1       -0.0029
     26 C         143.2267  143.6065  162.4405 C.ar    1  UNL1       -0.0061
     27 C         143.3612  143.1984  161.0034 C.ar    1  UNL1       -0.0029
     28 C         142.4066  143.7357  159.9786 C.ar    1  UNL1       -0.0003
     29 C         140.8265  145.4515  157.9588 C.2     1  UNL1        0.0598
     30 C         140.3630  145.2184  159.3661 C.2     1  UNL1        0.0047
     31 O         139.3422  145.0884  155.8576 O.2     1  UNL1       -0.2681
     32 C         139.8719  145.9888  156.9340 C.2     1  UNL1        0.2679
     33 N         139.4471  147.4264  156.9857 N.am    1  UNL1       -0.1934
     34 O         138.4925  147.9637  155.9610 O.3     1  UNL1       -0.2949
     35 H         139.7948  148.0174  157.6922 H       1  UNL1        0.1825
     36 H         138.2498  147.2566  155.3430 H       1  UNL1        0.2414
@<TRIPOS>BOND
     1    31    32    2
     2    32    29    1
     3    29    30    2
     4    30    23    1
     5    23    24   ar
     6    24    25   ar
     7    25    26   ar
     8    26    22    1
     9    22     1    1
    10     1     2    1
    11     2     3    1
    12     3     4    1
    13     4     5    1
    14     5     7    1
    15     7     8    2
    16     8    16    1
    17    16    17   ar
    18    17    18   ar
    19    18    19   ar
    20    19    20   ar
    21    20    21   ar
    22     8     9    1
    23     9    10    2
    24    10    11    1
    25    11    12    1
    26    12    13    2
    27    13    14    1
    28    14    15    2
    29     5     6    1
    30    26    27   ar
    31    27    28   ar
    32    32    33   am
    33    33    34    1
    34    28    23   ar
    35     6     1    1
    36    15     7    1
    37    21    16   ar
    38    15    10    1
    39    33    35    1
    40    34    36    1
@<TRIPOS>MOLECULE
*****
 36 40 0 0 0
SMALL
GASTEIGER

@<TRIPOS>ATOM
      1 N         139.1614  144.0052  162.5552 N.3     1  UNL1       -0.2687
      2 C         138.7960  145.3951  162.1254 C.3     1  UNL1        0.0724
      3 C         139.6628  146.1295  161.1459 C.3     1  UNL1        0.0177
      4 C         140.8950  145.4741  160.5963 C.3     1  UNL1        0.0072
      5 C         141.2605  144.0841  161.0262 C.3     1  UNL1        0.0399
      6 C         140.3937  143.3498  162.0056 C.3     1  UNL1        0.0768
      7 C         142.4927  143.4287  160.4766 C.2     1  UNL1       -0.0024
      8 C         143.6106  142.8367  161.2827 C.2     1  UNL1        0.0770
      9 N         144.6321  142.2924  160.3286 N.2     1  UNL1       -0.2497
     10 C         144.1456  142.5480  158.9330 C.2     1  UNL1        0.0630
     11 C         144.7357  142.2319  157.5907 C.3     1  UNL1        0.0717
     12 C         144.0036  142.6182  156.3398 C.2     1  UNL1       -0.0198
     13 C         142.6813  143.3206  156.4312 C.2     1  UNL1       -0.0042
     14 C         142.0912  143.6366  157.7735 C.2     1  UNL1        0.0006
     15 C         142.8233  143.2503  159.0244 C.2     1  UNL1        0.0114
     16 C         143.6926  142.7961  162.7799 C.ar    1  UNL1        0.0173
     17 C         143.3386  141.5384  163.5166 C.ar    1  UNL1        0.0015
     18 C         143.4205  141.4978  165.0138 C.ar    1  UNL1        0.0000
     19 C         143.8566  142.7150  165.7743 C.ar    1  UNL1        0.0000
     20 C         144.2106  143.9727  165.0376 C.ar    1  UNL1        0.0000
     21 C         144.1286  144.0133  163.5404 C.ar    1  UNL1        0.0015
     22 C         138.2946  143.2708  163.5346 C.3     1  UNL1        0.0992
     23 C         140.1289  141.3656  167.1754 C.ar    1  UNL1        0.0001
     24 C         140.3822  142.8139  166.8787 C.ar    1  UNL1       -0.0003
     25 C         139.7708  143.4490  165.6651 C.ar    1  UNL1       -0.0029
     26 C         138.9060  142.6357  164.7481 C.ar    1  UNL1       -0.0061
     27 C         138.6528  141.1873  165.0448 C.ar    1  UNL1       -0.0029
     28 C         139.2642  140.5522  166.2585 C.ar    1  UNL1       -0.0003
     29 C         141.5700  141.5538  169.3290 C.2     1  UNL1        0.0598
     30 C         140.7403  140.7305  168.3890 C.2     1  UNL1        0.0047
     31 O         141.5214  141.0697  171.8811 O.2     1  UNL1       -0.2681
     32 C         142.1814  140.9186  170.5425 C.2     1  UNL1        0.2679
     33 N         143.4527  140.1324  170.4175 N.am    1  UNL1       -0.1934
     34 O         144.0641  139.4972  171.6310 O.3     1  UNL1       -0.2949
     35 H         143.8858  140.0333  169.5390 H       1  UNL1        0.1825
     36 H         143.5161  139.6902  172.4078 H       1  UNL1        0.2414
@<TRIPOS>BOND
     1    31    32    2
     2    32    29    1
     3    29    30    2
     4    30    23    1
     5    23    24   ar
     6    24    25   ar
     7    25    26   ar
     8    26    22    1
     9    22     1    1
    10     1     2    1
    11     2     3    1
    12     3     4    1
    13     4     5    1
    14     5     7    1
    15     7     8    2
    16     8    16    1
    17    16    17   ar
    18    17    18   ar
    19    18    19   ar
    20    19    20   ar
    21    20    21   ar
    22     8     9    1
    23     9    10    2
    24    10    11    1
    25    11    12    1
    26    12    13    2
    27    13    14    1
    28    14    15    2
    29     5     6    1
    30    26    27   ar
    31    27    28   ar
    32    32    33   am
    33    33    34    1
    34    28    23   ar
    35     6     1    1
    36    15     7    1
    37    21    16   ar
    38    15    10    1
    39    33    35    1
    40    34    36    1
@<TRIPOS>MOLECULE
*****
 36 40 0 0 0
SMALL
GASTEIGER

@<TRIPOS>ATOM
      1 N         139.8152  138.6956  162.5939 N.3     1  UNL1       -0.2687
      2 C         138.5108  137.9793  162.4055 C.3     1  UNL1        0.0724
      3 C         137.4505  138.5712  161.5250 C.3     1  UNL1        0.0177
      4 C         137.6946  139.8794  160.8328 C.3     1  UNL1        0.0072
      5 C         138.9990  140.5957  161.0212 C.3     1  UNL1        0.0399
      6 C         140.0592  140.0038  161.9018 C.3     1  UNL1        0.0768
      7 C         139.2431  141.9039  160.3291 C.2     1  UNL1       -0.0024
      8 C         139.3898  143.2399  160.9952 C.2     1  UNL1        0.0770
      9 N         139.6206  144.2674  159.9270 N.2     1  UNL1       -0.2497
     10 C         139.6166  143.5665  158.6009 C.2     1  UNL1        0.0630
     11 C         139.7953  144.0697  157.1991 C.3     1  UNL1        0.0717
     12 C         139.7406  143.1121  156.0459 C.2     1  UNL1       -0.0198
     13 C         139.5072  141.6514  156.2944 C.2     1  UNL1       -0.0042
     14 C         139.3286  141.1482  157.6961 C.2     1  UNL1        0.0006
     15 C         139.3833  142.1058  158.8494 C.2     1  UNL1        0.0114
     16 C         139.3182  143.5023  162.4703 C.ar    1  UNL1        0.0173
     17 C         140.5731  143.5135  163.2918 C.ar    1  UNL1        0.0015
     18 C         140.5016  143.7759  164.7670 C.ar    1  UNL1        0.0000
     19 C         139.1751  144.0270  165.4206 C.ar    1  UNL1        0.0000
     20 C         137.9201  144.0158  164.5990 C.ar    1  UNL1        0.0000
     21 C         137.9917  143.7534  163.1239 C.ar    1  UNL1        0.0015
     22 C         140.8755  138.1037  163.4745 C.3     1  UNL1        0.0992
     23 C         142.1759  140.2705  167.1979 C.ar    1  UNL1        0.0001
     24 C         140.8437  140.5750  166.5796 C.ar    1  UNL1       -0.0003
     25 C         140.4103  139.8528  165.3384 C.ar    1  UNL1       -0.0029
     26 C         141.3090  138.8259  164.7156 C.ar    1  UNL1       -0.0061
     27 C         142.6413  138.5214  165.3339 C.ar    1  UNL1       -0.0029
     28 C         143.0747  139.2437  166.5752 C.ar    1  UNL1       -0.0003
     29 C         141.5966  141.7082  169.2830 C.2     1  UNL1        0.0598
     30 C         142.6095  140.9927  168.4391 C.2     1  UNL1        0.0047
     31 O         141.3742  142.1243  171.8378 O.2     1  UNL1       -0.2681
     32 C         142.0302  142.4304  170.5241 C.2     1  UNL1        0.2679
     33 N         143.1199  143.4587  170.4515 N.am    1  UNL1       -0.1934
     34 O         143.5536  144.1809  171.6925 O.3     1  UNL1       -0.2949
     35 H         143.5505  143.6595  169.5892 H       1  UNL1        0.1825
     36 H         143.0326  143.8669  172.4481 H       1  UNL1        0.2414
@<TRIPOS>BOND
     1    31    32    2
     2    32    29    1
     3    29    30    2
     4    30    23    1
     5    23    24   ar
     6    24    25   ar
     7    25    26   ar
     8    26    22    1
     9    22     1    1
    10     1     2    1
    11     2     3    1
    12     3     4    1
    13     4     5    1
    14     5     7    1
    15     7     8    2
    16     8    16    1
    17    16    17   ar
    18    17    18   ar
    19    18    19   ar
    20    19    20   ar
    21    20    21   ar
    22     8     9    1
    23     9    10    2
    24    10    11    1
    25    11    12    1
    26    12    13    2
    27    13    14    1
    28    14    15    2
    29     5     6    1
    30    26    27   ar
    31    27    28   ar
    32    32    33   am
    33    33    34    1
    34    28    23   ar
    35     6     1    1
    36    15     7    1
    37    21    16   ar
    38    15    10    1
    39    33    35    1
    40    34    36    1
@<TRIPOS>MOLECULE
*****
 36 40 0 0 0
SMALL
GASTEIGER

@<TRIPOS>ATOM
      1 N         139.4451  139.3954  160.5819 N.3     1  UNL1       -0.2687
      2 C         139.5432  139.0475  159.1261 C.3     1  UNL1        0.0724
      3 C         140.6966  139.5521  158.3106 C.3     1  UNL1        0.0177
      4 C         141.7518  140.4046  158.9508 C.3     1  UNL1        0.0072
      5 C         141.6537  140.7524  160.4067 C.3     1  UNL1        0.0399
      6 C         140.5003  140.2478  161.2222 C.3     1  UNL1        0.0768
      7 C         142.7089  141.6048  161.0470 C.2     1  UNL1       -0.0024
      8 C         142.9981  143.0408  160.7241 C.2     1  UNL1        0.0770
      9 N         144.1281  143.4943  161.6001 N.2     1  UNL1       -0.2497
     10 C         144.5373  142.3386  162.4644 C.2     1  UNL1        0.0630
     11 C         145.5952  142.1988  163.5184 C.3     1  UNL1        0.0717
     12 C         145.7761  140.8911  164.2307 C.2     1  UNL1       -0.0198
     13 C         144.8989  139.7233  163.8888 C.2     1  UNL1       -0.0042
     14 C         143.8410  139.8632  162.8347 C.2     1  UNL1        0.0006
     15 C         143.6601  141.1708  162.1225 C.2     1  UNL1        0.0114
     16 C         142.2829  143.8765  159.7043 C.ar    1  UNL1        0.0173
     17 C         142.7951  143.9426  158.2960 C.ar    1  UNL1        0.0015
     18 C         142.0799  144.7783  157.2762 C.ar    1  UNL1        0.0000
     19 C         140.8524  145.5480  157.6647 C.ar    1  UNL1        0.0000
     20 C         140.3402  145.4819  159.0729 C.ar    1  UNL1        0.0000
     21 C         141.0554  144.6462  160.0927 C.ar    1  UNL1        0.0015
     22 C         138.2918  138.8908  161.3975 C.3     1  UNL1        0.0992
     23 C         138.4532  139.0937  165.8901 C.ar    1  UNL1        0.0001
     24 C         138.8227  137.8235  165.1829 C.ar    1  UNL1       -0.0003
     25 C         138.7689  137.7559  163.6854 C.ar    1  UNL1       -0.0029
     26 C         138.3456  138.9584  162.8950 C.ar    1  UNL1       -0.0061
     27 C         137.9761  140.2286  163.6021 C.ar    1  UNL1       -0.0029
     28 C         138.0299  140.2962  165.0997 C.ar    1  UNL1       -0.0003
     29 C         139.3950  140.1649  168.0616 C.2     1  UNL1        0.0598
     30 C         138.5070  139.1613  167.3875 C.2     1  UNL1        0.0047
     31 O         138.2214  139.9331  170.3679 O.2     1  UNL1       -0.2681
     32 C         139.4487  140.2326  169.5591 C.2     1  UNL1        0.2679
     33 N         140.7297  140.5996  170.2478 N.am    1  UNL1       -0.1934
     34 O         140.7835  140.6673  171.7452 O.3     1  UNL1       -0.2949
     35 H         141.5352  140.7962  169.7169 H       1  UNL1        0.1825
     36 H         139.9122  140.4472  172.1104 H       1  UNL1        0.2414
@<TRIPOS>BOND
     1    31    32    2
     2    32    29    1
     3    29    30    2
     4    30    23    1
     5    23    24   ar
     6    24    25   ar
     7    25    26   ar
     8    26    22    1
     9    22     1    1
    10     1     2    1
    11     2     3    1
    12     3     4    1
    13     4     5    1
    14     5     7    1
    15     7     8    2
    16     8    16    1
    17    16    17   ar
    18    17    18   ar
    19    18    19   ar
    20    19    20   ar
    21    20    21   ar
    22     8     9    1
    23     9    10    2
    24    10    11    1
    25    11    12    1
    26    12    13    2
    27    13    14    1
    28    14    15    2
    29     5     6    1
    30    26    27   ar
    31    27    28   ar
    32    32    33   am
    33    33    34    1
    34    28    23   ar
    35     6     1    1
    36    15     7    1
    37    21    16   ar
    38    15    10    1
    39    33    35    1
    40    34    36    1
@<TRIPOS>MOLECULE
*****
 36 40 0 0 0
SMALL
GASTEIGER

@<TRIPOS>ATOM
      1 N         142.3637  138.6504  162.5223 N.3     1  UNL1       -0.2687
      2 C         143.4076  138.0033  161.6612 C.3     1  UNL1        0.0724
      3 C         144.0947  138.7980  160.5906 C.3     1  UNL1        0.0177
      4 C         143.7379  140.2398  160.3810 C.3     1  UNL1        0.0072
      5 C         142.6939  140.8869  161.2421 C.3     1  UNL1        0.0399
      6 C         142.0068  140.0922  162.3127 C.3     1  UNL1        0.0768
      7 C         142.3370  142.3287  161.0325 C.2     1  UNL1       -0.0024
      8 C         142.3789  143.4077  162.0736 C.2     1  UNL1        0.0770
      9 N         141.9434  144.6904  161.4295 N.2     1  UNL1       -0.2497
     10 C         141.6323  144.4042  159.9903 C.2     1  UNL1        0.0630
     11 C         141.1590  145.2841  158.8715 C.3     1  UNL1        0.0717
     12 C         140.9289  144.7043  157.5074 C.2     1  UNL1       -0.0198
     13 C         141.1722  143.2447  157.2620 C.2     1  UNL1       -0.0042
     14 C         141.6455  142.3648  158.3808 C.2     1  UNL1        0.0006
     15 C         141.8756  142.9445  159.7449 C.2     1  UNL1        0.0114
     16 C         142.7851  143.2344  163.5072 C.ar    1  UNL1        0.0173
     17 C         141.7669  142.8293  164.5314 C.ar    1  UNL1        0.0015
     18 C         142.1730  142.6560  165.9650 C.ar    1  UNL1        0.0000
     19 C         143.5973  142.8878  166.3742 C.ar    1  UNL1        0.0000
     20 C         144.6155  143.2929  165.3500 C.ar    1  UNL1        0.0000
     21 C         144.2094  143.4662  163.9164 C.ar    1  UNL1        0.0015
     22 C         141.6766  137.8557  163.5930 C.3     1  UNL1        0.0992
     23 C         140.4417  139.8500  167.4333 C.ar    1  UNL1        0.0001
     24 C         139.4198  139.5688  166.3719 C.ar    1  UNL1       -0.0003
     25 C         139.8315  138.9040  165.0918 C.ar    1  UNL1       -0.0029
     26 C         141.2650  138.5204  164.8731 C.ar    1  UNL1       -0.0061
     27 C         142.2869  138.8016  165.9345 C.ar    1  UNL1       -0.0029
     28 C         141.8752  139.4664  167.2146 C.ar    1  UNL1       -0.0003
     29 C         140.9331  141.5239  169.3585 C.2     1  UNL1        0.0598
     30 C         140.0301  140.5147  168.7134 C.2     1  UNL1        0.0047
     31 O         141.4217  142.1307  171.8371 O.2     1  UNL1       -0.2681
     32 C         140.5214  142.1886  170.6386 C.2     1  UNL1        0.2679
     33 N         139.2095  142.9112  170.7203 N.am    1  UNL1       -0.1934
     34 O         138.7977  143.5759  172.0004 O.3     1  UNL1       -0.2949
     35 H         138.6186  142.9491  169.9338 H       1  UNL1        0.1825
     36 H         139.4877  143.4445  172.6694 H       1  UNL1        0.2414
@<TRIPOS>BOND
     1    31    32    2
     2    32    29    1
     3    29    30    2
     4    30    23    1
     5    23    24   ar
     6    24    25   ar
     7    25    26   ar
     8    26    22    1
     9    22     1    1
    10     1     2    1
    11     2     3    1
    12     3     4    1
    13     4     5    1
    14     5     7    1
    15     7     8    2
    16     8    16    1
    17    16    17   ar
    18    17    18   ar
    19    18    19   ar
    20    19    20   ar
    21    20    21   ar
    22     8     9    1
    23     9    10    2
    24    10    11    1
    25    11    12    1
    26    12    13    2
    27    13    14    1
    28    14    15    2
    29     5     6    1
    30    26    27   ar
    31    27    28   ar
    32    32    33   am
    33    33    34    1
    34    28    23   ar
    35     6     1    1
    36    15     7    1
    37    21    16   ar
    38    15    10    1
    39    33    35    1
    40    34    36    1
@<TRIPOS>MOLECULE
*****
 36 40 0 0 0
SMALL
GASTEIGER

@<TRIPOS>ATOM
      1 N         138.9006  138.3156  162.2890 N.3     1  UNL1       -0.2687
      2 C         137.7412  139.1838  161.8993 C.3     1  UNL1        0.0724
      3 C         137.7047  139.8215  160.5421 C.3     1  UNL1        0.0177
      4 C         138.8276  139.5910  159.5747 C.3     1  UNL1        0.0072
      5 C         139.9871  138.7227  159.9645 C.3     1  UNL1        0.0399
      6 C         140.0235  138.0851  161.3216 C.3     1  UNL1        0.0768
      7 C         141.1100  138.4923  158.9970 C.2     1  UNL1       -0.0024
      8 C         142.5637  138.7580  159.2540 C.2     1  UNL1        0.0770
      9 N         143.3285  138.3855  158.0186 N.2     1  UNL1       -0.2497
     10 C         142.3474  137.8896  156.9980 C.2     1  UNL1        0.0630
     11 C         142.5254  137.3864  155.5962 C.3     1  UNL1        0.0717
     12 C         141.3324  136.9492  154.7991 C.2     1  UNL1       -0.0198
     13 C         139.9612  137.0152  155.4039 C.2     1  UNL1       -0.0042
     14 C         139.7832  137.5183  156.8057 C.2     1  UNL1        0.0006
     15 C         140.9763  137.9555  157.6027 C.2     1  UNL1        0.0114
     16 C         143.1498  139.3009  160.5236 C.ar    1  UNL1        0.0173
     17 C         143.5094  138.3688  161.6424 C.ar    1  UNL1        0.0015
     18 C         144.0955  138.9117  162.9119 C.ar    1  UNL1        0.0000
     19 C         144.3219  140.3868  163.0627 C.ar    1  UNL1        0.0000
     20 C         143.9623  141.3190  161.9440 C.ar    1  UNL1        0.0000
     21 C         143.3762  140.7760  160.6744 C.ar    1  UNL1        0.0015
     22 C         138.9371  137.6778  163.6462 C.3     1  UNL1        0.0992
     23 C         140.2421  140.0745  167.2244 C.ar    1  UNL1        0.0001
     24 C         138.8190  139.6149  167.1080 C.ar    1  UNL1       -0.0003
     25 C         138.3840  138.8160  165.9153 C.ar    1  UNL1       -0.0029
     26 C         139.3721  138.4767  164.8389 C.ar    1  UNL1       -0.0061
     27 C         140.7952  138.9363  164.9553 C.ar    1  UNL1       -0.0029
     28 C         141.2302  139.7352  166.1481 C.ar    1  UNL1       -0.0003
     29 C         140.6794  142.3721  168.3557 C.2     1  UNL1        0.0598
     30 C         140.6771  140.8733  168.4170 C.2     1  UNL1        0.0047
     31 O         140.0996  143.9203  170.3599 O.2     1  UNL1       -0.2681
     32 C         141.1144  143.1709  169.5484 C.2     1  UNL1        0.2679
     33 N         142.5643  143.2202  169.9297 N.am    1  UNL1       -0.1934
     34 O         142.9995  144.0190  171.1224 O.3     1  UNL1       -0.2949
     35 H         143.2303  142.7283  169.3971 H       1  UNL1        0.1825
     36 H         142.2257  144.4376  171.5309 H       1  UNL1        0.2414
@<TRIPOS>BOND
     1    31    32    2
     2    32    29    1
     3    29    30    2
     4    30    23    1
     5    23    24   ar
     6    24    25   ar
     7    25    26   ar
     8    26    22    1
     9    22     1    1
    10     1     2    1
    11     2     3    1
    12     3     4    1
    13     4     5    1
    14     5     7    1
    15     7     8    2
    16     8    16    1
    17    16    17   ar
    18    17    18   ar
    19    18    19   ar
    20    19    20   ar
    21    20    21   ar
    22     8     9    1
    23     9    10    2
    24    10    11    1
    25    11    12    1
    26    12    13    2
    27    13    14    1
    28    14    15    2
    29     5     6    1
    30    26    27   ar
    31    27    28   ar
    32    32    33   am
    33    33    34    1
    34    28    23   ar
    35     6     1    1
    36    15     7    1
    37    21    16   ar
    38    15    10    1
    39    33    35    1
    40    34    36    1
