@<TRIPOS>MOLECULE
*****
 32 34 0 0 0
SMALL
GASTEIGER

@<TRIPOS>ATOM
      1 C         139.7408  139.5115  165.5649 C.ar    1  UNL1        0.0505
      2 C         138.4013  138.8853  165.8172 C.ar    1  UNL1        0.0170
      3 C         137.8150  138.8991  167.1978 C.ar    1  UNL1        0.0307
      4 C         138.5683  139.5392  168.3262 C.ar    1  UNL1        0.1402
      5 F         137.9820  139.5530  169.7068 F       1  UNL1       -0.2044
      6 C         139.9077  140.1653  168.0738 C.ar    1  UNL1        0.0529
      7 C         140.4940  140.1515  166.6932 C.ar    1  UNL1        0.0167
      8 C         140.6609  140.8053  169.2021 C.3     1  UNL1        0.2253
      9 C         139.6708  141.8911  168.9010 C.3     1  UNL1        0.0609
     10 N         141.3895  139.4973  169.1115 N.2     1  UNL1       -0.0691
     11 C         142.5274  139.2063  170.0445 C.2     1  UNL1        0.3194
     12 N         143.2560  137.8983  169.9538 N.pl3   1  UNL1       -0.2480
     13 C         142.9367  140.2234  171.0682 C.3     1  UNL1        0.2592
     14 O         142.2082  141.5315  171.1589 O.3     1  UNL1       -0.3346
     15 C         141.0703  141.8224  170.2258 C.3     1  UNL1        0.2310
     16 H         142.9873  137.2307  169.2820 H       1  UNL1        0.2882
     17 H         144.0028  137.7073  170.5662 H       1  UNL1        0.2882
     18 C         140.3417  143.1304  170.3165 C.3     1  UNL1        0.3496
     19 F         139.0970  143.2397  171.1463 F       1  UNL1       -0.1955
     20 F         140.8579  144.3292  169.5773 F       1  UNL1       -0.1955
     21 C         141.0066  138.2631  163.6704 C.2     1  UNL1        0.2688
     22 O         141.0999  137.0424  164.5371 O.2     1  UNL1       -0.2681
     23 N         140.3271  139.4976  164.1843 N.am    1  UNL1       -0.2791
     24 H         140.2659  140.2988  163.6155 H       1  UNL1        0.1552
     25 C         142.7654  138.2216  159.5286 C.ar    1  UNL1        0.2449
     26 C         141.2884  138.4051  159.7143 C.ar    1  UNL1        0.1565
     27 N         140.7021  138.4189  161.0950 N.ar    1  UNL1       -0.2328
     28 C         141.5929  138.2493  162.2898 C.ar    1  UNL1        0.1541
     29 C         143.0699  138.0657  162.1040 C.ar    1  UNL1        0.1258
     30 N         143.6562  138.0519  160.7234 N.ar    1  UNL1       -0.2071
     31 C         142.6799  137.4296  157.0556 C.3     1  UNL1        0.2543
     32 O         143.3517  138.2077  158.1479 O.3     1  UNL1       -0.4551
@<TRIPOS>BOND
     1    31    32    1
     2    32    25    1
     3    25    26   ar
     4    26    27   ar
     5    27    28   ar
     6    28    21    1
     7    21    22    2
     8    21    23   am
     9    23     1    1
    10     1     2   ar
    11     2     3   ar
    12     3     4   ar
    13     4     5    1
    14     4     6   ar
    15     6     8    1
    16     8     9    1
    17     8    10    1
    18    10    11    2
    19    11    12    1
    20    11    13    1
    21    13    14    1
    22    14    15    1
    23    15    18    1
    24    18    19    1
    25    18    20    1
    26     6     7   ar
    27    28    29   ar
    28    29    30   ar
    29    30    25   ar
    30     7     1   ar
    31    15     8    1
    32    23    24    1
    33    12    16    1
    34    12    17    1
@<TRIPOS>MOLECULE
*****
 32 34 0 0 0
SMALL
GASTEIGER

@<TRIPOS>ATOM
      1 C         140.0065  141.2948  164.9337 C.ar    1  UNL1        0.0505
      2 C         138.8825  140.3044  164.8568 C.ar    1  UNL1        0.0170
      3 C         138.3736  139.6490  166.1064 C.ar    1  UNL1        0.0307
      4 C         138.9887  139.9841  167.4329 C.ar    1  UNL1        0.1402
      5 F         138.4798  139.3288  168.6825 F       1  UNL1       -0.2044
      6 C         140.1126  140.9744  167.5097 C.ar    1  UNL1        0.0529
      7 C         140.6215  141.6298  166.2601 C.ar    1  UNL1        0.0167
      8 C         140.7276  141.3095  168.8362 C.3     1  UNL1        0.2253
      9 C         139.7938  142.4730  168.6808 C.3     1  UNL1        0.0609
     10 N         141.4479  140.0296  168.5310 N.2     1  UNL1       -0.0691
     11 C         142.4588  139.4889  169.4982 C.2     1  UNL1        0.3194
     12 N         143.1791  138.2089  169.1930 N.pl3   1  UNL1       -0.2480
     13 C         142.7496  140.2279  170.7707 C.3     1  UNL1        0.2592
     14 O         142.0293  141.5079  171.0759 O.3     1  UNL1       -0.3346
     15 C         141.0184  142.0485  170.1086 C.3     1  UNL1        0.2310
     16 H         142.9883  137.7238  168.3578 H       1  UNL1        0.2882
     17 H         143.8426  137.8540  169.8278 H       1  UNL1        0.2882
     18 C         140.2981  143.3285  170.4139 C.3     1  UNL1        0.3496
     19 F         138.9972  143.2974  171.1600 F       1  UNL1       -0.1955
     20 F         140.8787  144.6393  169.9730 F       1  UNL1       -0.1955
     21 C         139.9970  143.2983  163.2797 C.2     1  UNL1        0.2688
     22 O         138.9696  143.9911  164.1249 O.2     1  UNL1       -0.2681
     23 N         140.5154  141.9501  163.6841 N.am    1  UNL1       -0.2791
     24 H         141.1897  141.4954  163.1293 H       1  UNL1        0.1552
     25 C         141.5237  145.2643  159.5308 C.ar    1  UNL1        0.2449
     26 C         140.1213  145.5232  159.9957 C.ar    1  UNL1        0.1565
     27 N         139.6124  144.8678  161.2453 N.ar    1  UNL1       -0.2328
     28 C         140.5059  143.9536  162.0300 C.ar    1  UNL1        0.1541
     29 C         141.9083  143.6947  161.5651 C.ar    1  UNL1        0.1258
     30 N         142.4172  144.3501  160.3155 N.ar    1  UNL1       -0.2071
     31 C         142.2543  145.1028  157.0428 C.3     1  UNL1        0.2543
     32 O         142.0326  145.9196  158.2812 O.3     1  UNL1       -0.4551
@<TRIPOS>BOND
     1    31    32    1
     2    32    25    1
     3    25    26   ar
     4    26    27   ar
     5    27    28   ar
     6    28    21    1
     7    21    22    2
     8    21    23   am
     9    23     1    1
    10     1     2   ar
    11     2     3   ar
    12     3     4   ar
    13     4     5    1
    14     4     6   ar
    15     6     8    1
    16     8     9    1
    17     8    10    1
    18    10    11    2
    19    11    12    1
    20    11    13    1
    21    13    14    1
    22    14    15    1
    23    15    18    1
    24    18    19    1
    25    18    20    1
    26     6     7   ar
    27    28    29   ar
    28    29    30   ar
    29    30    25   ar
    30     7     1   ar
    31    15     8    1
    32    23    24    1
    33    12    16    1
    34    12    17    1
@<TRIPOS>MOLECULE
*****
 32 34 0 0 0
SMALL
GASTEIGER

@<TRIPOS>ATOM
      1 C         141.6888  140.7161  165.2236 C.ar    1  UNL1        0.0505
      2 C         142.5207  139.4857  165.0136 C.ar    1  UNL1        0.0170
      3 C         143.0196  138.7071  166.1947 C.ar    1  UNL1        0.0307
      4 C         142.6865  139.1589  167.5857 C.ar    1  UNL1        0.1402
      5 F         143.1854  138.3803  168.7668 F       1  UNL1       -0.2044
      6 C         141.8546  140.3892  167.7957 C.ar    1  UNL1        0.0529
      7 C         141.3558  141.1678  166.6147 C.ar    1  UNL1        0.0167
      8 C         141.5216  140.8409  169.1867 C.3     1  UNL1        0.2253
      9 C         140.3111  140.0075  168.8867 C.3     1  UNL1        0.0609
     10 N         142.8477  141.5175  169.0037 N.2     1  UNL1       -0.0691
     11 C         143.4205  142.3563  170.1075 C.2     1  UNL1        0.3194
     12 N         144.7467  143.0329  169.9244 N.pl3   1  UNL1       -0.2480
     13 C         142.6670  142.5186  171.3943 C.3     1  UNL1        0.2592
     14 O         141.3408  141.8421  171.5774 O.3     1  UNL1       -0.3346
     15 C         140.7682  141.0032  170.4736 C.3     1  UNL1        0.2310
     16 H         145.2412  142.9264  169.0798 H       1  UNL1        0.2882
     17 H         145.1226  143.5835  170.6489 H       1  UNL1        0.2882
     18 C         139.4419  140.3267  170.6566 C.3     1  UNL1        0.3496
     19 F         138.2012  140.9393  170.0777 F       1  UNL1       -0.1955
     20 F         139.3565  139.0375  171.4186 F       1  UNL1       -0.1955
     21 C         141.8162  142.8124  163.6942 C.2     1  UNL1        0.2688
     22 O         142.9413  143.3515  164.5269 O.2     1  UNL1       -0.2681
     23 N         141.1899  141.4947  164.0426 N.am    1  UNL1       -0.2791
     24 H         140.4514  141.1408  163.4961 H       1  UNL1        0.1552
     25 C         140.3195  145.1482  160.1510 C.ar    1  UNL1        0.2449
     26 C         141.6712  144.4995  160.1050 C.ar    1  UNL1        0.1565
     27 N         142.1700  143.7208  161.2860 N.ar    1  UNL1       -0.2328
     28 C         141.3173  143.5910  162.5132 C.ar    1  UNL1        0.1541
     29 C         139.9657  144.2398  162.5592 C.ar    1  UNL1        0.1258
     30 N         139.4668  145.0184  161.3782 N.ar    1  UNL1       -0.2071
     31 C         140.5040  145.7942  157.6413 C.3     1  UNL1        0.2543
     32 O         139.8207  145.9268  158.9700 O.3     1  UNL1       -0.4551
@<TRIPOS>BOND
     1    31    32    1
     2    32    25    1
     3    25    26   ar
     4    26    27   ar
     5    27    28   ar
     6    28    21    1
     7    21    22    2
     8    21    23   am
     9    23     1    1
    10     1     2   ar
    11     2     3   ar
    12     3     4   ar
    13     4     5    1
    14     4     6   ar
    15     6     8    1
    16     8     9    1
    17     8    10    1
    18    10    11    2
    19    11    12    1
    20    11    13    1
    21    13    14    1
    22    14    15    1
    23    15    18    1
    24    18    19    1
    25    18    20    1
    26     6     7   ar
    27    28    29   ar
    28    29    30   ar
    29    30    25   ar
    30     7     1   ar
    31    15     8    1
    32    23    24    1
    33    12    16    1
    34    12    17    1
@<TRIPOS>MOLECULE
*****
 32 34 0 0 0
SMALL
GASTEIGER

@<TRIPOS>ATOM
      1 C         142.1341  140.8350  164.2195 C.ar    1  UNL1        0.0505
      2 C         143.0133  139.6288  164.0709 C.ar    1  UNL1        0.0170
      3 C         143.3948  138.8255  165.2789 C.ar    1  UNL1        0.0307
      4 C         142.8971  139.2285  166.6354 C.ar    1  UNL1        0.1402
      5 F         143.2786  138.4252  167.8433 F       1  UNL1       -0.2044
      6 C         142.0180  140.4347  166.7839 C.ar    1  UNL1        0.0529
      7 C         141.6365  141.2380  165.5759 C.ar    1  UNL1        0.0167
      8 C         141.5204  140.8376  168.1403 C.3     1  UNL1        0.2253
      9 C         142.8537  141.5247  168.1374 C.3     1  UNL1        0.0609
     10 N         140.3598  140.0107  167.6722 N.2     1  UNL1       -0.0691
     11 C         139.1647  139.8252  168.5595 C.2     1  UNL1        0.3194
     12 N         138.0041  138.9982  168.0914 N.pl3   1  UNL1       -0.2480
     13 C         139.1301  140.4668  169.9150 C.3     1  UNL1        0.2592
     14 O         140.2907  141.2938  170.3831 O.3     1  UNL1       -0.3346
     15 C         141.4858  141.4791  169.4957 C.3     1  UNL1        0.2310
     16 H         138.0267  138.5772  167.2018 H       1  UNL1        0.2882
     17 H         137.2197  138.8765  168.6738 H       1  UNL1        0.2882
     18 C         142.6464  142.3061  169.9639 C.3     1  UNL1        0.3496
     19 F         143.9820  141.6627  170.1924 F       1  UNL1       -0.1955
     20 F         142.4715  143.7765  170.2034 F       1  UNL1       -0.1955
     21 C         142.6181  142.7793  162.5656 C.2     1  UNL1        0.2688
     22 O         143.8652  143.1170  163.3276 O.2     1  UNL1       -0.2681
     23 N         141.7526  141.6383  163.0115 N.am    1  UNL1       -0.2791
     24 H         140.9340  141.4167  162.5114 H       1  UNL1        0.1552
     25 C         141.4735  145.1892  158.9417 C.ar    1  UNL1        0.2449
     26 C         140.7642  145.4110  160.2446 C.ar    1  UNL1        0.1565
     27 N         141.1457  144.6077  161.4525 N.ar    1  UNL1       -0.2328
     28 C         142.2366  143.5826  161.3576 C.ar    1  UNL1        0.1541
     29 C         142.9460  143.3608  160.0547 C.ar    1  UNL1        0.1258
     30 N         142.5644  144.1641  158.8468 N.ar    1  UNL1       -0.2071
     31 C         141.8411  145.8133  156.4466 C.3     1  UNL1        0.2543
     32 O         141.0920  145.9925  157.7337 O.3     1  UNL1       -0.4551
@<TRIPOS>BOND
     1    31    32    1
     2    32    25    1
     3    25    26   ar
     4    26    27   ar
     5    27    28   ar
     6    28    21    1
     7    21    22    2
     8    21    23   am
     9    23     1    1
    10     1     2   ar
    11     2     3   ar
    12     3     4   ar
    13     4     5    1
    14     4     6   ar
    15     6     8    1
    16     8     9    1
    17     8    10    1
    18    10    11    2
    19    11    12    1
    20    11    13    1
    21    13    14    1
    22    14    15    1
    23    15    18    1
    24    18    19    1
    25    18    20    1
    26     6     7   ar
    27    28    29   ar
    28    29    30   ar
    29    30    25   ar
    30     7     1   ar
    31    15     8    1
    32    23    24    1
    33    12    16    1
    34    12    17    1
@<TRIPOS>MOLECULE
*****
 32 34 0 0 0
SMALL
GASTEIGER

@<TRIPOS>ATOM
      1 C         143.2399  141.1487  163.5763 C.ar    1  UNL1        0.0505
      2 C         144.4421  140.2557  163.6623 C.ar    1  UNL1        0.0170
      3 C         144.5205  139.2042  164.7292 C.ar    1  UNL1        0.0307
      4 C         143.3967  139.0458  165.7101 C.ar    1  UNL1        0.1402
      5 F         143.4750  137.9943  166.7770 F       1  UNL1       -0.2044
      6 C         142.1946  139.9388  165.6241 C.ar    1  UNL1        0.0529
      7 C         142.1162  140.9903  164.5572 C.ar    1  UNL1        0.0167
      8 C         141.0709  139.7804  166.6049 C.3     1  UNL1        0.2253
      9 C         140.3846  139.3335  165.3482 C.3     1  UNL1        0.0609
     10 N         142.1473  140.2823  167.5211 N.2     1  UNL1       -0.0691
     11 C         141.8618  140.4705  168.9815 C.2     1  UNL1        0.3194
     12 N         142.9383  140.9724  169.8976 N.pl3   1  UNL1       -0.2480
     13 C         140.4997  140.1569  169.5259 C.3     1  UNL1        0.2592
     14 O         139.4232  139.6550  168.6098 O.3     1  UNL1       -0.3346
     15 C         139.7088  139.4668  167.1494 C.3     1  UNL1        0.2310
     16 H         143.8323  141.1783  169.5403 H       1  UNL1        0.2882
     17 H         142.7509  141.0960  170.8562 H       1  UNL1        0.2882
     18 C         138.6323  138.9649  166.2332 C.3     1  UNL1        0.3496
     19 F         137.7260  139.9369  165.5377 F       1  UNL1       -0.1955
     20 F         138.4620  137.4910  166.0127 F       1  UNL1       -0.1955
     21 C         142.3998  141.9310  161.2456 C.2     1  UNL1        0.2688
     22 O         141.7165  140.6104  161.0487 O.2     1  UNL1       -0.2681
     23 N         143.1616  142.2002  162.5094 N.am    1  UNL1       -0.2791
     24 H         143.6101  143.0670  162.6387 H       1  UNL1        0.1552
     25 C         142.1648  145.0854  158.0449 C.ar    1  UNL1        0.2449
     26 C         142.7824  143.7528  157.7407 C.ar    1  UNL1        0.1565
     27 N         142.8608  142.7014  158.8076 N.ar    1  UNL1       -0.2328
     28 C         142.3215  142.9825  160.1787 C.ar    1  UNL1        0.1541
     29 C         141.7038  144.3151  160.4830 C.ar    1  UNL1        0.1258
     30 N         141.6254  145.3666  159.4161 N.ar    1  UNL1       -0.2071
     31 C         140.9834  146.0941  155.9624 C.3     1  UNL1        0.2543
     32 O         142.0864  146.1369  156.9780 O.3     1  UNL1       -0.4551
@<TRIPOS>BOND
     1    31    32    1
     2    32    25    1
     3    25    26   ar
     4    26    27   ar
     5    27    28   ar
     6    28    21    1
     7    21    22    2
     8    21    23   am
     9    23     1    1
    10     1     2   ar
    11     2     3   ar
    12     3     4   ar
    13     4     5    1
    14     4     6   ar
    15     6     8    1
    16     8     9    1
    17     8    10    1
    18    10    11    2
    19    11    12    1
    20    11    13    1
    21    13    14    1
    22    14    15    1
    23    15    18    1
    24    18    19    1
    25    18    20    1
    26     6     7   ar
    27    28    29   ar
    28    29    30   ar
    29    30    25   ar
    30     7     1   ar
    31    15     8    1
    32    23    24    1
    33    12    16    1
    34    12    17    1
@<TRIPOS>MOLECULE
*****
 32 34 0 0 0
SMALL
GASTEIGER

@<TRIPOS>ATOM
      1 C         138.6272  142.4467  162.5513 C.ar    1  UNL1        0.0505
      2 C         137.5576  143.2856  163.1858 C.ar    1  UNL1        0.0170
      3 C         137.8234  143.9805  164.4882 C.ar    1  UNL1        0.0307
      4 C         139.1588  143.8365  165.1562 C.ar    1  UNL1        0.1402
      5 F         139.4246  144.5315  166.4587 F       1  UNL1       -0.2044
      6 C         140.2283  142.9977  164.5218 C.ar    1  UNL1        0.0529
      7 C         139.9624  142.3028  163.2193 C.ar    1  UNL1        0.0167
      8 C         141.5635  142.8538  165.1898 C.3     1  UNL1        0.2253
      9 C         140.7476  141.9214  166.0352 C.3     1  UNL1        0.0609
     10 N         141.9159  143.8362  164.1125 N.2     1  UNL1       -0.0691
     11 C         143.3200  144.3509  163.9967 C.2     1  UNL1        0.3194
     12 N         143.6723  145.3333  162.9193 N.pl3   1  UNL1       -0.2480
     13 C         144.3719  143.8832  164.9583 C.3     1  UNL1        0.2592
     14 O         144.0196  142.9007  166.0357 O.3     1  UNL1       -0.3346
     15 C         142.6154  142.3861  166.1514 C.3     1  UNL1        0.2310
     16 H         142.9819  145.6403  162.2881 H       1  UNL1        0.2882
     17 H         144.5939  145.6711  162.8433 H       1  UNL1        0.2882
     18 C         142.2631  141.4037  167.2288 C.3     1  UNL1        0.3496
     19 F         141.7022  141.8894  168.5324 F       1  UNL1       -0.1955
     20 F         142.4718  139.9356  167.0026 F       1  UNL1       -0.1955
     21 C         138.6268  142.4596  159.9533 C.2     1  UNL1        0.2688
     22 O         139.1580  143.8623  159.9602 O.2     1  UNL1       -0.2681
     23 N         138.3614  141.7518  161.2488 N.am    1  UNL1       -0.2791
     24 H         138.0127  140.8311  161.2443 H       1  UNL1        0.1552
     25 C         137.8294  140.3748  156.0459 C.ar    1  UNL1        0.2449
     26 C         137.4321  141.8101  156.2249 C.ar    1  UNL1        0.1565
     27 N         137.6979  142.5050  157.5274 N.ar    1  UNL1       -0.2328
     28 C         138.3610  141.7647  158.6508 C.ar    1  UNL1        0.1541
     29 C         138.7583  140.3294  158.4718 C.ar    1  UNL1        0.1258
     30 N         138.4925  139.6345  157.1693 N.ar    1  UNL1       -0.2071
     31 C         138.0266  138.2680  154.5384 C.3     1  UNL1        0.2543
     32 O         137.5635  139.6799  154.7434 O.3     1  UNL1       -0.4551
@<TRIPOS>BOND
     1    31    32    1
     2    32    25    1
     3    25    26   ar
     4    26    27   ar
     5    27    28   ar
     6    28    21    1
     7    21    22    2
     8    21    23   am
     9    23     1    1
    10     1     2   ar
    11     2     3   ar
    12     3     4   ar
    13     4     5    1
    14     4     6   ar
    15     6     8    1
    16     8     9    1
    17     8    10    1
    18    10    11    2
    19    11    12    1
    20    11    13    1
    21    13    14    1
    22    14    15    1
    23    15    18    1
    24    18    19    1
    25    18    20    1
    26     6     7   ar
    27    28    29   ar
    28    29    30   ar
    29    30    25   ar
    30     7     1   ar
    31    15     8    1
    32    23    24    1
    33    12    16    1
    34    12    17    1
@<TRIPOS>MOLECULE
*****
 32 34 0 0 0
SMALL
GASTEIGER

@<TRIPOS>ATOM
      1 C         139.7504  144.1325  162.1352 C.ar    1  UNL1        0.0505
      2 C         139.4429  145.1459  163.1976 C.ar    1  UNL1        0.0170
      3 C         139.4364  144.7401  164.6417 C.ar    1  UNL1        0.0307
      4 C         139.7374  143.3210  165.0233 C.ar    1  UNL1        0.1402
      5 F         139.7310  142.9152  166.4674 F       1  UNL1       -0.2044
      6 C         140.0450  142.3077  163.9610 C.ar    1  UNL1        0.0529
      7 C         140.0514  142.7135  162.5169 C.ar    1  UNL1        0.0167
      8 C         140.3460  140.8887  164.3426 C.3     1  UNL1        0.2253
      9 C         138.8572  140.8045  164.1805 C.3     1  UNL1        0.0609
     10 N         141.7303  141.4656  164.3723 N.2     1  UNL1       -0.0691
     11 C         142.8985  140.5943  164.7272 C.2     1  UNL1        0.3194
     12 N         144.2828  141.1712  164.7568 N.pl3   1  UNL1       -0.2480
     13 C         142.6825  139.1460  165.0526 C.3     1  UNL1        0.2592
     14 O         141.2982  138.5691  165.0230 O.3     1  UNL1       -0.3346
     15 C         140.1300  139.4405  164.6680 C.3     1  UNL1        0.2310
     16 H         144.4246  142.1218  164.5432 H       1  UNL1        0.2882
     17 H         145.0496  140.5994  164.9898 H       1  UNL1        0.2882
     18 C         138.7456  138.8635  164.6384 C.3     1  UNL1        0.3496
     19 F         137.8688  138.9552  165.8520 F       1  UNL1       -0.1955
     20 F         138.2382  138.1949  163.3953 F       1  UNL1       -0.1955
     21 C         141.0568  144.8150  159.9957 C.2     1  UNL1        0.2688
     22 O         142.3501  144.6859  160.7443 O.2     1  UNL1       -0.2681
     23 N         139.7569  144.5383  160.6912 N.am    1  UNL1       -0.2791
     24 H         138.9080  144.6230  160.1998 H       1  UNL1        0.1552
     25 C         141.0762  146.0322  155.6635 C.ar    1  UNL1        0.2449
     26 C         139.9432  146.4479  156.5542 C.ar    1  UNL1        0.1565
     27 N         139.9367  146.0421  157.9983 N.ar    1  UNL1       -0.2328
     28 C         141.0632  145.2207  158.5516 C.ar    1  UNL1        0.1541
     29 C         142.1963  144.8051  157.6609 C.ar    1  UNL1        0.1258
     30 N         142.2027  145.2109  156.2168 N.ar    1  UNL1       -0.2071
     31 C         140.4134  147.7116  153.7952 C.3     1  UNL1        0.2543
     32 O         141.0827  146.4380  154.2194 O.3     1  UNL1       -0.4551
@<TRIPOS>BOND
     1    31    32    1
     2    32    25    1
     3    25    26   ar
     4    26    27   ar
     5    27    28   ar
     6    28    21    1
     7    21    22    2
     8    21    23   am
     9    23     1    1
    10     1     2   ar
    11     2     3   ar
    12     3     4   ar
    13     4     5    1
    14     4     6   ar
    15     6     8    1
    16     8     9    1
    17     8    10    1
    18    10    11    2
    19    11    12    1
    20    11    13    1
    21    13    14    1
    22    14    15    1
    23    15    18    1
    24    18    19    1
    25    18    20    1
    26     6     7   ar
    27    28    29   ar
    28    29    30   ar
    29    30    25   ar
    30     7     1   ar
    31    15     8    1
    32    23    24    1
    33    12    16    1
    34    12    17    1
@<TRIPOS>MOLECULE
*****
 32 34 0 0 0
SMALL
GASTEIGER

@<TRIPOS>ATOM
      1 C         142.3612  144.4191  162.4312 C.ar    1  UNL1        0.0505
      2 C         143.4211  145.1325  163.2172 C.ar    1  UNL1        0.0170
      3 C         143.9255  144.5446  164.5018 C.ar    1  UNL1        0.0307
      4 C         143.3700  143.2435  165.0003 C.ar    1  UNL1        0.1402
      5 F         143.8744  142.6556  166.2848 F       1  UNL1       -0.2044
      6 C         142.3101  142.5302  164.2143 C.ar    1  UNL1        0.0529
      7 C         141.8057  143.1180  162.9298 C.ar    1  UNL1        0.0167
      8 C         141.7546  141.2291  164.7128 C.3     1  UNL1        0.2253
      9 C         140.7531  142.1808  165.2970 C.3     1  UNL1        0.0609
     10 N         142.9490  140.7292  163.9555 N.2     1  UNL1       -0.0691
     11 C         143.2401  139.2588  163.8996 C.2     1  UNL1        0.3194
     12 N         144.4345  138.7590  163.1423 N.pl3   1  UNL1       -0.2480
     13 C         142.3368  138.2882  164.6011 C.3     1  UNL1        0.2592
     14 O         141.1423  138.7881  165.3584 O.3     1  UNL1       -0.3346
     15 C         140.8513  140.2585  165.4142 C.3     1  UNL1        0.2310
     16 H         145.0274  139.3960  162.6819 H       1  UNL1        0.2882
     17 H         144.6256  137.7939  163.1056 H       1  UNL1        0.2882
     18 C         139.6569  140.7584  166.1716 C.3     1  UNL1        0.3496
     19 F         139.7730  141.0705  167.6341 F       1  UNL1       -0.1955
     20 F         138.3464  140.9461  165.4664 F       1  UNL1       -0.1955
     21 C         142.1745  144.3404  159.8411 C.2     1  UNL1        0.2688
     22 O         142.9968  143.0861  159.8200 O.2     1  UNL1       -0.2681
     23 N         141.8567  145.0070  161.1467 N.am    1  UNL1       -0.2791
     24 H         141.3171  145.8302  161.1605 H       1  UNL1        0.1552
     25 C         140.6613  146.1039  155.9875 C.ar    1  UNL1        0.2449
     26 C         141.9631  145.3591  156.0113 C.ar    1  UNL1        0.1565
     27 N         142.4675  144.7713  157.2958 N.ar    1  UNL1       -0.2328
     28 C         141.6701  144.9282  158.5565 C.ar    1  UNL1        0.1541
     29 C         140.3684  145.6731  158.5328 C.ar    1  UNL1        0.1258
     30 N         139.8640  146.2609  157.2482 N.ar    1  UNL1       -0.2071
     31 C         139.7790  148.1419  154.6391 C.3     1  UNL1        0.2543
     32 O         140.1569  146.6917  154.7029 O.3     1  UNL1       -0.4551
@<TRIPOS>BOND
     1    31    32    1
     2    32    25    1
     3    25    26   ar
     4    26    27   ar
     5    27    28   ar
     6    28    21    1
     7    21    22    2
     8    21    23   am
     9    23     1    1
    10     1     2   ar
    11     2     3   ar
    12     3     4   ar
    13     4     5    1
    14     4     6   ar
    15     6     8    1
    16     8     9    1
    17     8    10    1
    18    10    11    2
    19    11    12    1
    20    11    13    1
    21    13    14    1
    22    14    15    1
    23    15    18    1
    24    18    19    1
    25    18    20    1
    26     6     7   ar
    27    28    29   ar
    28    29    30   ar
    29    30    25   ar
    30     7     1   ar
    31    15     8    1
    32    23    24    1
    33    12    16    1
    34    12    17    1
@<TRIPOS>MOLECULE
*****
 32 34 0 0 0
SMALL
GASTEIGER

@<TRIPOS>ATOM
      1 C         142.6831  138.9760  161.8350 C.ar    1  UNL1        0.0505
      2 C         143.9697  138.6006  162.5086 C.ar    1  UNL1        0.0170
      3 C         144.4539  139.3858  163.6915 C.ar    1  UNL1        0.0307
      4 C         143.6513  140.5463  164.2007 C.ar    1  UNL1        0.1402
      5 F         144.1355  141.3314  165.3835 F       1  UNL1       -0.2044
      6 C         142.3648  140.9216  163.5271 C.ar    1  UNL1        0.0529
      7 C         141.8806  140.1364  162.3442 C.ar    1  UNL1        0.0167
      8 C         141.5623  142.0821  164.0363 C.3     1  UNL1        0.2253
      9 C         140.8168  140.9489  164.6766 C.3     1  UNL1        0.0609
     10 N         142.5865  142.8123  163.2191 N.2     1  UNL1       -0.0691
     11 C         142.5494  144.3093  163.1336 C.2     1  UNL1        0.3194
     12 N         143.5736  145.0395  162.3164 N.pl3   1  UNL1       -0.2480
     13 C         141.4880  145.0763  163.8652 C.3     1  UNL1        0.2592
     14 O         140.4637  144.3461  164.6824 O.3     1  UNL1       -0.3346
     15 C         140.5010  142.8490  164.7679 C.3     1  UNL1        0.2310
     16 H         144.2702  144.5362  161.8362 H       1  UNL1        0.2882
     17 H         143.5492  146.0221  162.2602 H       1  UNL1        0.2882
     18 C         139.4767  142.1188  165.5851 C.3     1  UNL1        0.3496
     19 F         139.7765  141.7497  167.0077 F       1  UNL1       -0.1955
     20 F         138.1527  141.7577  164.9797 F       1  UNL1       -0.1955
     21 C         142.8156  138.4108  159.3026 C.2     1  UNL1        0.2688
     22 O         143.9164  139.4160  159.1359 O.2     1  UNL1       -0.2681
     23 N         142.1989  138.1908  160.6521 N.am    1  UNL1       -0.2791
     24 H         141.4764  137.5311  160.7615 H       1  UNL1        0.1552
     25 C         141.3632  136.0554  155.7540 C.ar    1  UNL1        0.2449
     26 C         142.6870  135.7296  156.3796 C.ar    1  UNL1        0.1565
     27 N         143.1711  136.5147  157.5624 N.ar    1  UNL1       -0.2328
     28 C         142.3314  137.6257  158.1197 C.ar    1  UNL1        0.1541
     29 C         141.0076  137.9515  157.4942 C.ar    1  UNL1        0.1258
     30 N         140.5235  137.1664  156.3113 N.ar    1  UNL1       -0.2071
     31 C         141.4924  133.9390  154.2527 C.3     1  UNL1        0.2543
     32 O         140.8790  135.2702  154.5712 O.3     1  UNL1       -0.4551
@<TRIPOS>BOND
     1    31    32    1
     2    32    25    1
     3    25    26   ar
     4    26    27   ar
     5    27    28   ar
     6    28    21    1
     7    21    22    2
     8    21    23   am
     9    23     1    1
    10     1     2   ar
    11     2     3   ar
    12     3     4   ar
    13     4     5    1
    14     4     6   ar
    15     6     8    1
    16     8     9    1
    17     8    10    1
    18    10    11    2
    19    11    12    1
    20    11    13    1
    21    13    14    1
    22    14    15    1
    23    15    18    1
    24    18    19    1
    25    18    20    1
    26     6     7   ar
    27    28    29   ar
    28    29    30   ar
    29    30    25   ar
    30     7     1   ar
    31    15     8    1
    32    23    24    1
    33    12    16    1
    34    12    17    1
