@<TRIPOS>MOLECULE
*****
 23 27 0 0 0
SMALL
GASTEIGER

@<TRIPOS>ATOM
      1 C         142.3630  140.0124  167.2207 C.ar    1  UNL1        0.1720
      2 C         141.0403  140.2306  167.8936 C.ar    1  UNL1        0.0397
      3 C         140.1560  141.3622  167.4603 C.ar    1  UNL1       -0.0012
      4 C         140.5944  142.2754  166.3541 C.ar    1  UNL1       -0.0216
      5 C         141.9171  142.0572  165.6812 C.ar    1  UNL1        0.0142
      6 C         142.8014  140.9256  166.1145 C.ar    1  UNL1        0.1679
      7 O         144.0416  140.9576  165.2715 O.3     1  UNL1       -0.4733
      8 C         143.9239  142.1089  164.3172 C.3     1  UNL1        0.2007
      9 C         144.8427  142.6262  163.2503 C.3     1  UNL1        0.1724
     10 O         146.1558  141.9467  162.9970 O.3     1  UNL1       -0.3765
     11 C         144.4485  143.8231  162.4367 C.2     1  UNL1        0.0017
     12 C         143.1355  144.5027  162.6900 C.2     1  UNL1       -0.0267
     13 C         142.2167  143.9853  163.7568 C.3     1  UNL1        0.0441
     14 C         140.9036  144.6649  164.0101 C.3     1  UNL1        0.0663
     15 C         140.0437  143.4747  165.6411 C.3     1  UNL1        0.0424
     16 N         140.5975  143.8305  164.9587 N.3     1  UNL1       -0.2721
     17 C         138.6718  144.8272  165.3301 C.3     1  UNL1        0.0896
     18 C         140.8078  143.1921  165.3927 C.3     1  UNL1        0.0726
     19 C         141.5082  142.8297  165.2575 C.3     1  UNL1        0.0254
     20 C         142.6109  142.7884  164.5704 C.3     1  UNL1        0.0674
     21 H         146.6234  142.4037  162.2805 H       1  UNL1        0.2109
     22 C         143.7896  137.9210  166.6369 C.3     1  UNL1        0.2526
     23 O         143.2472  138.8808  167.6540 O.3     1  UNL1       -0.4684
@<TRIPOS>BOND
     1    22    23    1
     2    23     1    1
     3     1     2   ar
     4     2     3   ar
     5     3     4   ar
     6     4     5   ar
     7     5     6   ar
     8     6     7    1
     9     8     7    1
    10     8     9    1
    11     9    10    1
    12     9    11    1
    13    11    12    2
    14    13    12    1
    15    13    14    1
    16    14    15    1
    17    14    16    1
    18    16    17    1
    19    16    18    1
    20    18    19    1
    21    20    19    1
    22     6     1   ar
    23    20     8    1
    24    15     4    1
    25    20     5    1
    26    20    13    1
    27    10    21    1
@<TRIPOS>MOLECULE
*****
 23 27 0 0 0
SMALL
GASTEIGER

@<TRIPOS>ATOM
      1 C         138.7767  144.4319  163.2377 C.ar    1  UNL1        0.1720
      2 C         139.1968  144.8491  164.6159 C.ar    1  UNL1        0.0397
      3 C         139.4541  143.8113  165.6679 C.ar    1  UNL1       -0.0012
      4 C         139.2914  142.3563  165.3418 C.ar    1  UNL1       -0.0216
      5 C         138.8713  141.9391  163.9636 C.ar    1  UNL1        0.0142
      6 C         138.6139  142.9769  162.9116 C.ar    1  UNL1        0.1679
      7 O         138.2143  142.2695  161.6506 O.3     1  UNL1       -0.4733
      8 C         138.2247  140.7945  161.9233 C.3     1  UNL1        0.2007
      9 C         137.9169  139.6110  161.0547 C.3     1  UNL1        0.1724
     10 O         137.5109  139.8152  159.6252 O.3     1  UNL1       -0.3765
     11 C         138.0151  138.2233  161.6155 C.2     1  UNL1        0.0017
     12 C         138.4211  138.0191  163.0450 C.2     1  UNL1       -0.0267
     13 C         138.7289  139.2026  163.9137 C.3     1  UNL1        0.0441
     14 C         139.1349  138.9984  165.3432 C.3     1  UNL1        0.0663
     15 C         139.4398  141.0492  166.0625 C.3     1  UNL1        0.0424
     16 N         139.2532  140.2772  165.5448 N.3     1  UNL1       -0.2721
     17 C         139.8487  139.9777  167.6413 C.3     1  UNL1        0.0896
     18 C         139.2009  141.0174  165.2456 C.3     1  UNL1        0.0726
     19 C         138.9843  141.1262  164.4832 C.3     1  UNL1        0.0254
     20 C         138.6307  140.5903  163.3528 C.3     1  UNL1        0.0674
     21 H         137.3496  138.9541  159.2087 H       1  UNL1        0.2109
     22 C         139.6531  146.2947  161.6528 C.3     1  UNL1        0.2526
     23 O         138.5194  145.4697  162.1857 O.3     1  UNL1       -0.4684
@<TRIPOS>BOND
     1    22    23    1
     2    23     1    1
     3     1     2   ar
     4     2     3   ar
     5     3     4   ar
     6     4     5   ar
     7     5     6   ar
     8     6     7    1
     9     8     7    1
    10     8     9    1
    11     9    10    1
    12     9    11    1
    13    11    12    2
    14    13    12    1
    15    13    14    1
    16    14    15    1
    17    14    16    1
    18    16    17    1
    19    16    18    1
    20    18    19    1
    21    20    19    1
    22     6     1   ar
    23    20     8    1
    24    15     4    1
    25    20     5    1
    26    20    13    1
    27    10    21    1
@<TRIPOS>MOLECULE
*****
 23 27 0 0 0
SMALL
GASTEIGER

@<TRIPOS>ATOM
      1 C         139.9060  140.1492  167.5593 C.ar    1  UNL1        0.1720
      2 C         140.2402  141.3883  168.3357 C.ar    1  UNL1        0.0397
      3 C         141.3931  142.2499  167.9134 C.ar    1  UNL1       -0.0012
      4 C         142.2119  141.8725  166.7147 C.ar    1  UNL1       -0.0216
      5 C         141.8777  140.6333  165.9382 C.ar    1  UNL1        0.0142
      6 C         140.7248  139.7717  166.3605 C.ar    1  UNL1        0.1679
      7 O         140.6347  138.6178  165.4064 O.3     1  UNL1       -0.4733
      8 C         141.7319  138.7662  164.3944 C.3     1  UNL1        0.2007
      9 C         142.1307  137.9280  163.2161 C.3     1  UNL1        0.1724
     10 O         141.3625  136.6823  162.8874 O.3     1  UNL1       -0.3765
     11 C         143.2978  138.3355  162.3665 C.2     1  UNL1        0.0017
     12 C         144.0660  139.5812  162.6952 C.2     1  UNL1       -0.0267
     13 C         143.6672  140.4194  163.8735 C.3     1  UNL1        0.0441
     14 C         144.4355  141.6652  164.2022 C.3     1  UNL1        0.0663
     15 C         143.3964  142.4258  165.9792 C.3     1  UNL1        0.0424
     16 N         143.6782  141.9220  165.2271 N.3     1  UNL1       -0.2721
     17 C         144.8049  143.7490  165.7091 C.3     1  UNL1        0.0896
     18 C         143.0557  141.7046  165.6802 C.3     1  UNL1        0.0726
     19 C         142.6460  141.0402  165.5049 C.3     1  UNL1        0.0254
     20 C         142.5001  140.0119  164.7231 C.3     1  UNL1        0.0674
     21 H         141.7481  136.2622  162.1027 H       1  UNL1        0.2109
     22 C         137.7485  138.8286  166.9666 C.3     1  UNL1        0.2526
     23 O         138.7531  139.2875  167.9816 O.3     1  UNL1       -0.4684
@<TRIPOS>BOND
     1    22    23    1
     2    23     1    1
     3     1     2   ar
     4     2     3   ar
     5     3     4   ar
     6     4     5   ar
     7     5     6   ar
     8     6     7    1
     9     8     7    1
    10     8     9    1
    11     9    10    1
    12     9    11    1
    13    11    12    2
    14    13    12    1
    15    13    14    1
    16    14    15    1
    17    14    16    1
    18    16    17    1
    19    16    18    1
    20    18    19    1
    21    20    19    1
    22     6     1   ar
    23    20     8    1
    24    15     4    1
    25    20     5    1
    26    20    13    1
    27    10    21    1
@<TRIPOS>MOLECULE
*****
 23 27 0 0 0
SMALL
GASTEIGER

@<TRIPOS>ATOM
      1 C         138.3667  138.7407  162.8329 C.ar    1  UNL1        0.1720
      2 C         138.9759  137.6067  163.6028 C.ar    1  UNL1        0.0397
      3 C         139.6948  137.8757  164.8915 C.ar    1  UNL1       -0.0012
      4 C         139.8046  139.2787  165.4103 C.ar    1  UNL1       -0.0216
      5 C         139.1955  140.4128  164.6405 C.ar    1  UNL1        0.0142
      6 C         138.4765  140.1438  163.3518 C.ar    1  UNL1        0.1679
      7 O         137.9801  141.4539  162.8157 O.3     1  UNL1       -0.4733
      8 C         138.3923  142.5326  163.7731 C.3     1  UNL1        0.2007
      9 C         138.1807  144.0176  163.7637 C.3     1  UNL1        0.1724
     10 O         137.4296  144.6610  162.6360 O.3     1  UNL1       -0.3765
     11 C         138.7202  144.8591  164.8820 C.2     1  UNL1        0.0017
     12 C         139.4713  144.2157  166.0098 C.2     1  UNL1       -0.0267
     13 C         139.6829  142.7307  166.0192 C.3     1  UNL1        0.0441
     14 C         140.4340  142.0873  167.1470 C.3     1  UNL1        0.0663
     15 C         140.4088  139.9617  166.6013 C.3     1  UNL1        0.0424
     16 N         140.2951  140.9026  166.6302 N.3     1  UNL1       -0.2721
     17 C         141.3967  139.9590  168.2842 C.3     1  UNL1        0.0896
     18 C         140.0074  140.4537  166.0336 C.3     1  UNL1        0.0726
     19 C         139.6068  140.7970  165.4322 C.3     1  UNL1        0.0254
     20 C         139.1434  141.8891  164.9009 C.3     1  UNL1        0.0674
     21 H         137.3831  145.6186  162.7832 H       1  UNL1        0.2109
     22 C         138.0185  139.2323  160.3057 C.3     1  UNL1        0.2526
     23 O         137.6478  138.4717  161.5442 O.3     1  UNL1       -0.4684
@<TRIPOS>BOND
     1    22    23    1
     2    23     1    1
     3     1     2   ar
     4     2     3   ar
     5     3     4   ar
     6     4     5   ar
     7     5     6   ar
     8     6     7    1
     9     8     7    1
    10     8     9    1
    11     9    10    1
    12     9    11    1
    13    11    12    2
    14    13    12    1
    15    13    14    1
    16    14    15    1
    17    14    16    1
    18    16    17    1
    19    16    18    1
    20    18    19    1
    21    20    19    1
    22     6     1   ar
    23    20     8    1
    24    15     4    1
    25    20     5    1
    26    20    13    1
    27    10    21    1
@<TRIPOS>MOLECULE
*****
 23 27 0 0 0
SMALL
GASTEIGER

@<TRIPOS>ATOM
      1 C         143.3771  141.7425  164.9329 C.ar    1  UNL1        0.1720
      2 C         142.5719  140.9887  163.9165 C.ar    1  UNL1        0.0397
      3 C         141.3100  140.2898  164.3277 C.ar    1  UNL1       -0.0012
      4 C         140.8533  140.3447  165.7554 C.ar    1  UNL1       -0.0216
      5 C         141.6586  141.0985  166.7719 C.ar    1  UNL1        0.0142
      6 C         142.9205  141.7974  166.3606 C.ar    1  UNL1        0.1679
      7 O         143.5019  142.4574  167.5757 O.3     1  UNL1       -0.4733
      8 C         142.5993  142.1665  168.7379 C.3     1  UNL1        0.2007
      9 C         142.6676  142.5578  170.1844 C.3     1  UNL1        0.1724
     10 O         143.8068  143.3976  170.6812 O.3     1  UNL1       -0.3765
     11 C         141.5967  142.1092  171.1340 C.2     1  UNL1        0.0017
     12 C         140.4575  141.2693  170.6372 C.2     1  UNL1       -0.0267
     13 C         140.3892  140.8780  169.1908 C.3     1  UNL1        0.0441
     14 C         139.2499  140.0381  168.6940 C.3     1  UNL1        0.0663
     15 C         139.7043  139.8116  166.5589 C.3     1  UNL1        0.0424
     16 N         139.7132  140.0388  167.4794 N.3     1  UNL1       -0.2721
     17 C         138.0424  138.8070  166.7508 C.3     1  UNL1        0.0896
     18 C         140.2845  140.2780  166.9729 C.3     1  UNL1        0.0726
     19 C         140.8921  140.7260  167.2379 C.3     1  UNL1        0.0254
     20 C         141.4601  141.3266  168.2411 C.3     1  UNL1        0.0674
     21 H         143.6994  143.5585  171.6317 H       1  UNL1        0.2109
     22 C         145.6916  141.6985  163.7535 C.3     1  UNL1        0.2526
     23 O         144.6391  142.4414  164.5217 O.3     1  UNL1       -0.4684
@<TRIPOS>BOND
     1    22    23    1
     2    23     1    1
     3     1     2   ar
     4     2     3   ar
     5     3     4   ar
     6     4     5   ar
     7     5     6   ar
     8     6     7    1
     9     8     7    1
    10     8     9    1
    11     9    10    1
    12     9    11    1
    13    11    12    2
    14    13    12    1
    15    13    14    1
    16    14    15    1
    17    14    16    1
    18    16    17    1
    19    16    18    1
    20    18    19    1
    21    20    19    1
    22     6     1   ar
    23    20     8    1
    24    15     4    1
    25    20     5    1
    26    20    13    1
    27    10    21    1
@<TRIPOS>MOLECULE
*****
 23 27 0 0 0
SMALL
GASTEIGER

@<TRIPOS>ATOM
      1 C         138.3629  139.1597  166.7372 C.ar    1  UNL1        0.1720
      2 C         138.4943  139.2904  165.2487 C.ar    1  UNL1        0.0397
      3 C         139.6287  140.0773  164.6621 C.ar    1  UNL1       -0.0012
      4 C         140.6316  140.7334  165.5641 C.ar    1  UNL1       -0.0216
      5 C         140.5002  140.6027  167.0525 C.ar    1  UNL1        0.0142
      6 C         139.3659  139.8158  167.6391 C.ar    1  UNL1        0.1679
      7 O         139.4939  139.8612  169.1329 O.3     1  UNL1       -0.4733
      8 C         140.7074  140.6761  169.4696 C.3     1  UNL1        0.2007
      9 C         141.3264  141.0600  170.7809 C.3     1  UNL1        0.1724
     10 O         140.7045  140.6017  172.0667 O.3     1  UNL1       -0.3765
     11 C         142.5674  141.9022  170.8064 C.2     1  UNL1        0.0017
     12 C         143.1893  142.3605  169.5207 C.2     1  UNL1       -0.0267
     13 C         142.5703  141.9765  168.2094 C.3     1  UNL1        0.0441
     14 C         143.1923  142.4349  166.9236 C.3     1  UNL1        0.0663
     15 C         141.8633  141.5745  165.4038 C.3     1  UNL1        0.0424
     16 N         142.2830  141.8371  166.2124 N.3     1  UNL1       -0.2721
     17 C         143.1952  142.5092  164.3267 C.3     1  UNL1        0.0896
     18 C         141.6211  141.3879  166.1988 C.3     1  UNL1        0.0726
     19 C         141.2895  141.1435  166.8846 C.3     1  UNL1        0.0254
     20 C         141.3293  141.1343  168.1839 C.3     1  UNL1        0.0674
     21 H         141.2252  140.9346  172.8144 H       1  UNL1        0.2109
     22 C         137.1653  136.8873  167.1264 C.3     1  UNL1        0.2526
     23 O         137.2285  138.3728  167.3237 O.3     1  UNL1       -0.4684
@<TRIPOS>BOND
     1    22    23    1
     2    23     1    1
     3     1     2   ar
     4     2     3   ar
     5     3     4   ar
     6     4     5   ar
     7     5     6   ar
     8     6     7    1
     9     8     7    1
    10     8     9    1
    11     9    10    1
    12     9    11    1
    13    11    12    2
    14    13    12    1
    15    13    14    1
    16    14    15    1
    17    14    16    1
    18    16    17    1
    19    16    18    1
    20    18    19    1
    21    20    19    1
    22     6     1   ar
    23    20     8    1
    24    15     4    1
    25    20     5    1
    26    20    13    1
    27    10    21    1
@<TRIPOS>MOLECULE
*****
 23 27 0 0 0
SMALL
GASTEIGER

@<TRIPOS>ATOM
      1 C         140.9110  142.2963  169.2532 C.ar    1  UNL1        0.1720
      2 C         140.0834  141.5057  170.2227 C.ar    1  UNL1        0.0397
      3 C         139.2138  140.3876  169.7291 C.ar    1  UNL1       -0.0012
      4 C         139.1719  140.0600  168.2659 C.ar    1  UNL1       -0.0216
      5 C         139.9995  140.8506  167.2964 C.ar    1  UNL1        0.0142
      6 C         140.8691  141.9687  167.7900 C.ar    1  UNL1        0.1679
      7 O         141.5692  142.5684  166.6067 O.3     1  UNL1       -0.4733
      8 C         141.1323  141.8210  165.3818 C.3     1  UNL1        0.2007
      9 C         141.4926  141.9700  163.9333 C.3     1  UNL1        0.1724
     10 O         142.4627  143.0317  163.5070 O.3     1  UNL1       -0.3765
     11 C         140.8827  141.0572  162.9111 C.2     1  UNL1        0.0017
     12 C         139.9126  139.9956  163.3373 C.2     1  UNL1       -0.0267
     13 C         139.5524  139.8466  164.7858 C.3     1  UNL1        0.0441
     14 C         138.5822  138.7848  165.2120 C.3     1  UNL1        0.0663
     15 C         138.4716  139.0678  167.3855 C.3     1  UNL1        0.0424
     16 N         138.6747  139.1313  166.4615 N.3     1  UNL1       -0.2721
     17 C         137.2519  137.5742  167.0867 C.3     1  UNL1        0.0896
     18 C         139.0000  139.6181  167.0068 C.3     1  UNL1        0.0726
     19 C         139.5174  140.1844  166.7794 C.3     1  UNL1        0.0254
     20 C         140.1622  140.7593  165.8080 C.3     1  UNL1        0.0674
     21 H         142.5839  142.9916  162.5455 H       1  UNL1        0.2109
     22 C         143.0022  143.1104  170.5623 C.3     1  UNL1        0.2526
     23 O         141.7806  143.4144  169.7468 O.3     1  UNL1       -0.4684
@<TRIPOS>BOND
     1    22    23    1
     2    23     1    1
     3     1     2   ar
     4     2     3   ar
     5     3     4   ar
     6     4     5   ar
     7     5     6   ar
     8     6     7    1
     9     8     7    1
    10     8     9    1
    11     9    10    1
    12     9    11    1
    13    11    12    2
    14    13    12    1
    15    13    14    1
    16    14    15    1
    17    14    16    1
    18    16    17    1
    19    16    18    1
    20    18    19    1
    21    20    19    1
    22     6     1   ar
    23    20     8    1
    24    15     4    1
    25    20     5    1
    26    20    13    1
    27    10    21    1
@<TRIPOS>MOLECULE
*****
 23 27 0 0 0
SMALL
GASTEIGER

@<TRIPOS>ATOM
      1 C         140.5042  144.8699  163.4982 C.ar    1  UNL1        0.1720
      2 C         139.3261  144.8574  164.4265 C.ar    1  UNL1        0.0397
      3 C         139.2088  143.7914  165.4753 C.ar    1  UNL1       -0.0012
      4 C         140.2697  142.7379  165.5958 C.ar    1  UNL1       -0.0216
      5 C         141.4479  142.7504  164.6675 C.ar    1  UNL1        0.0142
      6 C         141.5652  143.8164  163.6187 C.ar    1  UNL1        0.1679
      7 O         142.8309  143.5741  162.8511 O.3     1  UNL1       -0.4733
      8 C         143.4959  142.3585  163.4254 C.3     1  UNL1        0.2007
      9 C         144.7694  141.6493  163.0712 C.3     1  UNL1        0.1724
     10 O         145.6241  142.1584  161.9486 O.3     1  UNL1       -0.3765
     11 C         145.1881  140.4310  163.8396 C.2     1  UNL1        0.0017
     12 C         144.3333  139.9219  164.9622 C.2     1  UNL1       -0.0267
     13 C         143.0599  140.6311  165.3164 C.3     1  UNL1        0.0441
     14 C         142.2051  140.1219  166.4391 C.3     1  UNL1        0.0663
     15 C         140.5332  141.5432  166.4638 C.3     1  UNL1        0.0424
     16 N         141.3306  141.0687  166.2694 N.3     1  UNL1       -0.2721
     17 C         140.0770  140.3220  167.9158 C.3     1  UNL1        0.0896
     18 C         141.1073  141.7185  165.8595 C.3     1  UNL1        0.0726
     19 C         141.5632  141.9900  165.2608 C.3     1  UNL1        0.0254
     20 C         142.6412  141.8494  164.5480 C.3     1  UNL1        0.0674
     21 H         146.4040  141.5896  161.8525 H       1  UNL1        0.2109
     22 C         140.3743  145.6007  161.0085 C.3     1  UNL1        0.2526
     23 O         140.6215  145.9358  162.4495 O.3     1  UNL1       -0.4684
@<TRIPOS>BOND
     1    22    23    1
     2    23     1    1
     3     1     2   ar
     4     2     3   ar
     5     3     4   ar
     6     4     5   ar
     7     5     6   ar
     8     6     7    1
     9     8     7    1
    10     8     9    1
    11     9    10    1
    12     9    11    1
    13    11    12    2
    14    13    12    1
    15    13    14    1
    16    14    15    1
    17    14    16    1
    18    16    17    1
    19    16    18    1
    20    18    19    1
    21    20    19    1
    22     6     1   ar
    23    20     8    1
    24    15     4    1
    25    20     5    1
    26    20    13    1
    27    10    21    1
@<TRIPOS>MOLECULE
*****
 23 27 0 0 0
SMALL
GASTEIGER

@<TRIPOS>ATOM
      1 C         143.1691  142.8283  163.3850 C.ar    1  UNL1        0.1720
      2 C         144.3240  143.4860  164.0805 C.ar    1  UNL1        0.0397
      3 C         144.4601  143.3818  165.5706 C.ar    1  UNL1       -0.0012
      4 C         143.4414  142.6199  166.3654 C.ar    1  UNL1       -0.0216
      5 C         142.2865  141.9622  165.6699 C.ar    1  UNL1        0.0142
      6 C         142.1504  142.0664  164.1797 C.ar    1  UNL1        0.1679
      7 O         140.9148  141.3191  163.7738 O.3     1  UNL1       -0.4733
      8 C         140.2872  140.7531  165.0131 C.3     1  UNL1        0.2007
      9 C         139.0533  139.9270  165.2258 C.3     1  UNL1        0.1724
     10 O         138.2055  139.5296  164.0540 O.3     1  UNL1       -0.3765
     11 C         138.6673  139.4985  166.6105 C.2     1  UNL1        0.0017
     12 C         139.5151  139.8959  167.7823 C.2     1  UNL1       -0.0267
     13 C         140.7489  140.7220  167.5695 C.3     1  UNL1        0.0441
     14 C         141.5968  141.1194  168.7415 C.3     1  UNL1        0.0663
     15 C         143.2070  142.2821  167.8079 C.3     1  UNL1        0.0424
     16 N         142.4350  141.7599  167.9818 N.3     1  UNL1       -0.2721
     17 C         143.6784  142.3429  169.7006 C.3     1  UNL1        0.0896
     18 C         142.6409  141.9885  167.2433 C.3     1  UNL1        0.0726
     19 C         142.1887  141.7765  166.6183 C.3     1  UNL1        0.0254
     20 C         141.1350  141.1505  166.1849 C.3     1  UNL1        0.0674
     21 H         137.4526  139.0023  164.3637 H       1  UNL1        0.2109
     22 C         141.9785  143.8167  161.2981 C.3     1  UNL1        0.2526
     23 O         143.0330  142.9325  161.8948 O.3     1  UNL1       -0.4684
@<TRIPOS>BOND
     1    22    23    1
     2    23     1    1
     3     1     2   ar
     4     2     3   ar
     5     3     4   ar
     6     4     5   ar
     7     5     6   ar
     8     6     7    1
     9     8     7    1
    10     8     9    1
    11     9    10    1
    12     9    11    1
    13    11    12    2
    14    13    12    1
    15    13    14    1
    16    14    15    1
    17    14    16    1
    18    16    17    1
    19    16    18    1
    20    18    19    1
    21    20    19    1
    22     6     1   ar
    23    20     8    1
    24    15     4    1
    25    20     5    1
    26    20    13    1
    27    10    21    1
