@<TRIPOS>MOLECULE
*****
 30 33 0 0 0
SMALL
GASTEIGER

@<TRIPOS>ATOM
      1 C         144.1750  141.1314  162.3404 C.3     1  UNL1        0.0219
      2 C         142.9572  141.9597  162.6248 C.3     1  UNL1        0.0820
      3 C         142.3494  142.7971  161.5388 C.3     1  UNL1        0.0671
      4 C         141.1316  143.6254  161.8232 C.ar    1  UNL1        0.0837
      5 C         140.5216  143.6163  163.1935 C.ar    1  UNL1        0.1159
      6 N         139.3306  144.5282  163.1769 N.ar    1  UNL1       -0.1314
      7 N         139.2046  145.1008  161.7962 N.ar    1  UNL1       -0.0576
      8 N         140.3177  144.5429  160.9596 N.ar    1  UNL1       -0.1813
      9 C         141.1293  142.7789  164.2795 C.3     1  UNL1        0.1426
     10 N         142.3472  141.9506  163.9951 N.am    1  UNL1       -0.2715
     11 C         142.9550  141.1132  165.0811 C.2     1  UNL1        0.2514
     12 O         144.1728  140.2849  164.7968 O.2     1  UNL1       -0.2698
     13 C         140.5721  144.8488  159.5133 C.ar    1  UNL1        0.2543
     14 N         141.8156  145.5842  159.1098 N.ar    1  UNL1       -0.2060
     15 C         142.0701  145.8901  157.6635 C.ar    1  UNL1        0.1332
     16 C         141.0811  145.4606  156.6208 C.ar    1  UNL1        0.1784
     17 F         141.3355  145.7665  155.1745 F       1  UNL1       -0.2009
     18 C         139.8375  144.7252  157.0244 C.ar    1  UNL1        0.1332
     19 N         139.5830  144.4193  158.4706 N.ar    1  UNL1       -0.2060
     20 C         142.3450  141.1041  166.4514 C.ar    1  UNL1        0.0809
     21 C         141.1931  140.1920  166.7536 C.ar    1  UNL1        0.0068
     22 C         140.5830  140.1829  168.1239 C.ar    1  UNL1        0.0002
     23 C         141.1249  141.0859  169.1921 C.ar    1  UNL1        0.0061
     24 C         142.2768  141.9979  168.8900 C.ar    1  UNL1        0.0989
     25 C         142.8868  142.0070  167.5196 C.ar    1  UNL1        0.1483
     26 F         144.0387  142.9190  167.2175 F       1  UNL1       -0.2041
     27 C         142.8188  142.9009  169.9581 C.3     1  UNL1        0.4207
     28 F         143.3606  143.8040  171.0262 F       1  UNL1       -0.1658
     29 F         141.5535  143.7056  169.9197 F       1  UNL1       -0.1658
     30 F         144.0840  142.0962  169.9965 F       1  UNL1       -0.1658
@<TRIPOS>BOND
     1     2     1    1
     2     2     3    1
     3     3     4    1
     4     4     5   ar
     5     5     6   ar
     6     6     7   ar
     7     7     8   ar
     8     8    13    1
     9    13    14   ar
    10    14    15   ar
    11    15    16   ar
    12    16    17    1
    13    16    18   ar
    14    18    19   ar
    15     5     9    1
    16     9    10    1
    17    10    11   am
    18    11    12    2
    19    11    20    1
    20    20    21   ar
    21    21    22   ar
    22    22    23   ar
    23    23    24   ar
    24    24    27    1
    25    27    28    1
    26    27    29    1
    27    27    30    1
    28    24    25   ar
    29    25    26    1
    30    10     2    1
    31    25    20   ar
    32     8     4   ar
    33    19    13   ar
@<TRIPOS>MOLECULE
*****
 30 33 0 0 0
SMALL
GASTEIGER

@<TRIPOS>ATOM
      1 C         141.5709  139.4367  163.1518 C.3     1  UNL1        0.0219
      2 C         141.0239  140.7996  163.4572 C.3     1  UNL1        0.0820
      3 C         140.7413  141.7615  162.3415 C.3     1  UNL1        0.0671
      4 C         140.1943  143.1244  162.6468 C.ar    1  UNL1        0.0837
      5 C         139.9299  143.5255  164.0678 C.ar    1  UNL1        0.1159
      6 N         139.3927  144.9259  164.0620 N.ar    1  UNL1       -0.1314
      7 N         139.3250  145.3905  162.6374 N.ar    1  UNL1       -0.0576
      8 N         139.8204  144.2771  161.7627 N.ar    1  UNL1       -0.1813
      9 C         140.2126  142.5636  165.1836 C.3     1  UNL1        0.1426
     10 N         140.7596  141.2006  164.8782 N.am    1  UNL1       -0.2715
     11 C         141.0423  140.2386  165.9939 C.2     1  UNL1        0.2514
     12 O         141.5893  138.8757  165.6886 O.2     1  UNL1       -0.2698
     13 C         139.9237  144.3105  160.2667 C.ar    1  UNL1        0.2543
     14 N         140.8297  145.3026  159.5995 N.ar    1  UNL1       -0.2060
     15 C         140.9331  145.3361  158.1034 C.ar    1  UNL1        0.1332
     16 C         140.1306  144.3775  157.2746 C.ar    1  UNL1        0.1784
     17 F         140.2339  144.4110  155.7785 F       1  UNL1       -0.2009
     18 C         139.2246  143.3855  157.9418 C.ar    1  UNL1        0.1332
     19 N         139.1212  143.3520  159.4378 N.ar    1  UNL1       -0.2060
     20 C         140.7779  140.6396  167.4150 C.ar    1  UNL1        0.0809
     21 C         139.5683  140.1144  168.1299 C.ar    1  UNL1        0.0068
     22 C         139.3040  140.5155  169.5509 C.ar    1  UNL1        0.0002
     23 C         140.2492  141.4417  170.2570 C.ar    1  UNL1        0.0061
     24 C         141.4588  141.9669  169.5421 C.ar    1  UNL1        0.0989
     25 C         141.7232  141.5658  168.1211 C.ar    1  UNL1        0.1483
     26 F         142.9327  142.0910  167.4062 F       1  UNL1       -0.2041
     27 C         142.4042  142.8931  170.2482 C.3     1  UNL1        0.4207
     28 F         143.3494  143.8194  170.9542 F       1  UNL1       -0.1658
     29 F         141.4152  144.0117  170.1046 F       1  UNL1       -0.1658
     30 F         143.3930  141.7745  170.3918 F       1  UNL1       -0.1658
@<TRIPOS>BOND
     1     2     1    1
     2     2     3    1
     3     3     4    1
     4     4     5   ar
     5     5     6   ar
     6     6     7   ar
     7     7     8   ar
     8     8    13    1
     9    13    14   ar
    10    14    15   ar
    11    15    16   ar
    12    16    17    1
    13    16    18   ar
    14    18    19   ar
    15     5     9    1
    16     9    10    1
    17    10    11   am
    18    11    12    2
    19    11    20    1
    20    20    21   ar
    21    21    22   ar
    22    22    23   ar
    23    23    24   ar
    24    24    27    1
    25    27    28    1
    26    27    29    1
    27    27    30    1
    28    24    25   ar
    29    25    26    1
    30    10     2    1
    31    25    20   ar
    32     8     4   ar
    33    19    13   ar
@<TRIPOS>MOLECULE
*****
 30 33 0 0 0
SMALL
GASTEIGER

@<TRIPOS>ATOM
      1 C         141.7063  138.6892  163.4669 C.3     1  UNL1        0.0219
      2 C         140.8067  139.8824  163.5987 C.3     1  UNL1        0.0820
      3 C         140.2154  140.5147  162.3738 C.3     1  UNL1        0.0671
      4 C         139.3159  141.7078  162.5057 C.ar    1  UNL1        0.0837
      5 C         139.0078  142.2686  163.8623 C.ar    1  UNL1        0.1159
      6 N         138.0939  143.4443  163.6814 N.ar    1  UNL1       -0.1314
      7 N         137.8372  143.6101  162.2129 N.ar    1  UNL1       -0.0576
      8 N         138.5924  142.5369  161.4862 N.ar    1  UNL1       -0.1813
      9 C         139.5992  141.6363  165.0872 C.3     1  UNL1        0.1426
     10 N         140.4987  140.4431  164.9554 N.am    1  UNL1       -0.2715
     11 C         141.0901  139.8107  166.1803 C.2     1  UNL1        0.2514
     12 O         141.9896  138.6176  166.0485 O.2     1  UNL1       -0.2698
     13 C         138.6194  142.3293  160.0009 C.ar    1  UNL1        0.2543
     14 N         138.1859  141.0165  159.4191 N.ar    1  UNL1       -0.2060
     15 C         138.2129  140.8088  157.9338 C.ar    1  UNL1        0.1332
     16 C         138.6733  141.9140  157.0303 C.ar    1  UNL1        0.1784
     17 F         138.7003  141.7064  155.5450 F       1  UNL1       -0.2009
     18 C         139.1068  143.2269  157.6121 C.ar    1  UNL1        0.1332
     19 N         139.0799  143.4346  159.0973 N.ar    1  UNL1       -0.2060
     20 C         140.7820  140.3715  167.5370 C.ar    1  UNL1        0.0809
     21 C         139.5240  139.9681  168.2473 C.ar    1  UNL1        0.0068
     22 C         139.2159  140.5289  169.6040 C.ar    1  UNL1        0.0002
     23 C         140.1659  141.4930  170.2504 C.ar    1  UNL1        0.0061
     24 C         141.4240  141.8964  169.5401 C.ar    1  UNL1        0.0989
     25 C         141.7320  141.3356  168.1835 C.ar    1  UNL1        0.1483
     26 F         142.9901  141.7390  167.4732 F       1  UNL1       -0.2041
     27 C         142.3741  142.8606  170.1865 C.3     1  UNL1        0.4207
     28 F         143.3242  143.8247  170.8329 F       1  UNL1       -0.1658
     29 F         143.3778  141.7587  170.3547 F       1  UNL1       -0.1658
     30 F         141.3703  143.9625  170.0183 F       1  UNL1       -0.1658
@<TRIPOS>BOND
     1     2     1    1
     2     2     3    1
     3     3     4    1
     4     4     5   ar
     5     5     6   ar
     6     6     7   ar
     7     7     8   ar
     8     8    13    1
     9    13    14   ar
    10    14    15   ar
    11    15    16   ar
    12    16    17    1
    13    16    18   ar
    14    18    19   ar
    15     5     9    1
    16     9    10    1
    17    10    11   am
    18    11    12    2
    19    11    20    1
    20    20    21   ar
    21    21    22   ar
    22    22    23   ar
    23    23    24   ar
    24    24    27    1
    25    27    28    1
    26    27    29    1
    27    27    30    1
    28    24    25   ar
    29    25    26    1
    30    10     2    1
    31    25    20   ar
    32     8     4   ar
    33    19    13   ar
@<TRIPOS>MOLECULE
*****
 30 33 0 0 0
SMALL
GASTEIGER

@<TRIPOS>ATOM
      1 C         141.3018  139.4493  161.5763 C.3     1  UNL1        0.0219
      2 C         141.1042  140.8116  162.1722 C.3     1  UNL1        0.0820
      3 C         141.1070  142.0241  161.2891 C.3     1  UNL1        0.0671
      4 C         140.9094  143.3864  161.8849 C.ar    1  UNL1        0.0837
      5 C         140.7091  143.5363  163.3639 C.ar    1  UNL1        0.1159
      6 N         140.5402  144.9964  163.6632 N.ar    1  UNL1       -0.1314
      7 N         140.6362  145.7489  162.3692 N.ar    1  UNL1       -0.0576
      8 N         140.8644  144.7539  161.2701 N.ar    1  UNL1       -0.1813
      9 C         140.7062  142.3239  164.2470 C.3     1  UNL1        0.1426
     10 N         140.9038  140.9615  163.6511 N.am    1  UNL1       -0.2715
     11 C         140.9010  139.7490  164.5343 C.2     1  UNL1        0.2514
     12 O         141.0986  138.3867  163.9385 O.2     1  UNL1       -0.2698
     13 C         141.0203  145.0707  159.8123 C.ar    1  UNL1        0.2543
     14 N         142.2890  144.7102  159.0979 N.ar    1  UNL1       -0.2060
     15 C         142.4448  145.0271  157.6400 C.ar    1  UNL1        0.1332
     16 C         141.3321  145.7044  156.8966 C.ar    1  UNL1        0.1784
     17 F         141.4879  146.0213  155.4387 F       1  UNL1       -0.2009
     18 C         140.0633  146.0650  157.6111 C.ar    1  UNL1        0.1332
     19 N         139.9074  145.7482  159.0688 N.ar    1  UNL1       -0.2060
     20 C         140.7006  139.8989  166.0133 C.ar    1  UNL1        0.0809
     21 C         139.3544  139.6318  166.6187 C.ar    1  UNL1        0.0068
     22 C         139.1540  139.7817  168.0976 C.ar    1  UNL1        0.0002
     23 C         140.2998  140.1987  168.9713 C.ar    1  UNL1        0.0061
     24 C         141.6460  140.4657  168.3660 C.ar    1  UNL1        0.0989
     25 C         141.8464  140.3158  166.8870 C.ar    1  UNL1        0.1483
     26 F         143.1926  140.5829  166.2816 F       1  UNL1       -0.2041
     27 C         142.7919  140.8827  169.2395 C.3     1  UNL1        0.4207
     28 F         143.9378  141.2996  170.1131 F       1  UNL1       -0.1658
     29 F         142.8735  139.4922  169.7961 F       1  UNL1       -0.1658
     30 F         142.7104  142.2732  168.6829 F       1  UNL1       -0.1658
@<TRIPOS>BOND
     1     2     1    1
     2     2     3    1
     3     3     4    1
     4     4     5   ar
     5     5     6   ar
     6     6     7   ar
     7     7     8   ar
     8     8    13    1
     9    13    14   ar
    10    14    15   ar
    11    15    16   ar
    12    16    17    1
    13    16    18   ar
    14    18    19   ar
    15     5     9    1
    16     9    10    1
    17    10    11   am
    18    11    12    2
    19    11    20    1
    20    20    21   ar
    21    21    22   ar
    22    22    23   ar
    23    23    24   ar
    24    24    27    1
    25    27    28    1
    26    27    29    1
    27    27    30    1
    28    24    25   ar
    29    25    26    1
    30    10     2    1
    31    25    20   ar
    32     8     4   ar
    33    19    13   ar
@<TRIPOS>MOLECULE
*****
 30 33 0 0 0
SMALL
GASTEIGER

@<TRIPOS>ATOM
      1 C         139.7423  143.3982  161.0520 C.3     1  UNL1        0.0219
      2 C         140.6705  142.2553  161.3390 C.3     1  UNL1        0.0820
      3 C         141.6637  141.8176  160.3037 C.3     1  UNL1        0.0671
      4 C         142.5919  140.6748  160.5906 C.ar    1  UNL1        0.0837
      5 C         142.5268  139.9695  161.9129 C.ar    1  UNL1        0.1159
      6 N         143.5617  138.8838  161.9106 N.ar    1  UNL1       -0.1314
      7 N         144.2664  138.9180  160.5869 N.ar    1  UNL1       -0.0576
      8 N         143.6670  140.0248  159.7711 N.ar    1  UNL1       -0.1813
      9 C         141.5336  140.4072  162.9482 C.3     1  UNL1        0.1426
     10 N         140.6054  141.5501  162.6612 N.am    1  UNL1       -0.2715
     11 C         139.6120  141.9878  163.6966 C.2     1  UNL1        0.2514
     12 O         138.6839  143.1306  163.4096 O.2     1  UNL1       -0.2698
     13 C         144.0718  140.4135  158.3800 C.ar    1  UNL1        0.2543
     14 N         144.6459  141.7744  158.1186 N.ar    1  UNL1       -0.2060
     15 C         145.0507  142.1632  156.7275 C.ar    1  UNL1        0.1332
     16 C         144.8813  141.1910  155.5979 C.ar    1  UNL1        0.1784
     17 F         145.2860  141.5797  154.2068 F       1  UNL1       -0.2009
     18 C         144.3071  139.8301  155.8593 C.ar    1  UNL1        0.1332
     19 N         143.9024  139.4413  157.2503 N.ar    1  UNL1       -0.2060
     20 C         139.5470  141.2825  165.0189 C.ar    1  UNL1        0.0809
     21 C         140.2070  141.8851  166.2235 C.ar    1  UNL1        0.0068
     22 C         140.1419  141.1799  167.5458 C.ar    1  UNL1        0.0002
     23 C         139.4168  139.8721  167.6634 C.ar    1  UNL1        0.0061
     24 C         138.7568  139.2695  166.4588 C.ar    1  UNL1        0.0989
     25 C         138.8219  139.9747  165.1365 C.ar    1  UNL1        0.1483
     26 F         138.1619  139.3721  163.9318 F       1  UNL1       -0.2041
     27 C         138.0317  137.9616  166.5763 C.3     1  UNL1        0.4207
     28 F         137.3066  136.6538  166.6937 F       1  UNL1       -0.1658
     29 F         138.9728  137.3505  165.5809 F       1  UNL1       -0.1658
     30 F         137.0906  138.5728  167.5716 F       1  UNL1       -0.1658
@<TRIPOS>BOND
     1     2     1    1
     2     2     3    1
     3     3     4    1
     4     4     5   ar
     5     5     6   ar
     6     6     7   ar
     7     7     8   ar
     8     8    13    1
     9    13    14   ar
    10    14    15   ar
    11    15    16   ar
    12    16    17    1
    13    16    18   ar
    14    18    19   ar
    15     5     9    1
    16     9    10    1
    17    10    11   am
    18    11    12    2
    19    11    20    1
    20    20    21   ar
    21    21    22   ar
    22    22    23   ar
    23    23    24   ar
    24    24    27    1
    25    27    28    1
    26    27    29    1
    27    27    30    1
    28    24    25   ar
    29    25    26    1
    30    10     2    1
    31    25    20   ar
    32     8     4   ar
    33    19    13   ar
@<TRIPOS>MOLECULE
*****
 30 33 0 0 0
SMALL
GASTEIGER

@<TRIPOS>ATOM
      1 C         138.9011  142.0057  161.2998 C.3     1  UNL1        0.0219
      2 C         140.0062  141.0968  161.7499 C.3     1  UNL1        0.0820
      3 C         140.9405  140.4959  160.7419 C.3     1  UNL1        0.0671
      4 C         142.0456  139.5870  161.1920 C.ar    1  UNL1        0.0837
      5 C         142.2165  139.2790  162.6501 C.ar    1  UNL1        0.1159
      6 N         143.3891  138.3548  162.7944 N.ar    1  UNL1       -0.1314
      7 N         143.9429  138.0916  161.4254 N.ar    1  UNL1       -0.0576
      8 N         143.1126  138.8531  160.4351 N.ar    1  UNL1       -0.1813
      9 C         141.2822  139.8799  163.6581 C.3     1  UNL1        0.1426
     10 N         140.1771  140.7888  163.2079 N.am    1  UNL1       -0.2715
     11 C         139.2428  141.3898  164.2160 C.2     1  UNL1        0.2514
     12 O         138.1376  142.2987  163.7659 O.2     1  UNL1       -0.2698
     13 C         143.3140  138.8766  158.9489 C.ar    1  UNL1        0.2543
     14 N         143.9663  140.0607  158.2991 N.ar    1  UNL1       -0.2060
     15 C         144.1677  140.0842  156.8128 C.ar    1  UNL1        0.1332
     16 C         143.7168  138.9237  155.9764 C.ar    1  UNL1        0.1784
     17 F         143.9181  138.9472  154.4902 F       1  UNL1       -0.2009
     18 C         143.0644  137.7395  156.6263 C.ar    1  UNL1        0.1332
     19 N         142.8630  137.7160  158.1125 N.ar    1  UNL1       -0.2060
     20 C         139.4137  141.0818  165.6740 C.ar    1  UNL1        0.0809
     21 C         138.7926  139.8475  166.2577 C.ar    1  UNL1        0.0068
     22 C         138.9635  139.5395  167.7157 C.ar    1  UNL1        0.0002
     23 C         139.7554  140.4659  168.5902 C.ar    1  UNL1        0.0061
     24 C         140.3765  141.7002  168.0065 C.ar    1  UNL1        0.0989
     25 C         140.2056  142.0082  166.5485 C.ar    1  UNL1        0.1483
     26 F         140.8266  143.2426  165.9648 F       1  UNL1       -0.2041
     27 C         141.1684  142.6267  168.8809 C.3     1  UNL1        0.4207
     28 F         141.9603  143.5533  169.7553 F       1  UNL1       -0.1658
     29 F         140.0768  143.6509  168.7842 F       1  UNL1       -0.1658
     30 F         142.2600  141.6025  168.9776 F       1  UNL1       -0.1658
@<TRIPOS>BOND
     1     2     1    1
     2     2     3    1
     3     3     4    1
     4     4     5   ar
     5     5     6   ar
     6     6     7   ar
     7     7     8   ar
     8     8    13    1
     9    13    14   ar
    10    14    15   ar
    11    15    16   ar
    12    16    17    1
    13    16    18   ar
    14    18    19   ar
    15     5     9    1
    16     9    10    1
    17    10    11   am
    18    11    12    2
    19    11    20    1
    20    20    21   ar
    21    21    22   ar
    22    22    23   ar
    23    23    24   ar
    24    24    27    1
    25    27    28    1
    26    27    29    1
    27    27    30    1
    28    24    25   ar
    29    25    26    1
    30    10     2    1
    31    25    20   ar
    32     8     4   ar
    33    19    13   ar
@<TRIPOS>MOLECULE
*****
 30 33 0 0 0
SMALL
GASTEIGER

@<TRIPOS>ATOM
      1 C         137.4911  141.6339  162.9149 C.3     1  UNL1        0.0219
      2 C         138.9144  142.0422  162.6750 C.3     1  UNL1        0.0820
      3 C         139.2905  142.7373  161.4001 C.3     1  UNL1        0.0671
      4 C         140.7138  143.1455  161.1601 C.ar    1  UNL1        0.0837
      5 C         141.7610  142.8586  162.1950 C.ar    1  UNL1        0.1159
      6 N         143.0726  143.3758  161.6831 N.ar    1  UNL1       -0.1314
      7 N         142.8360  143.9824  160.3318 N.ar    1  UNL1       -0.0576
      8 N         141.3782  143.8401  160.0085 N.ar    1  UNL1       -0.1813
      9 C         141.3849  142.1635  163.4699 C.3     1  UNL1        0.1426
     10 N         139.9616  141.7552  163.7098 N.am    1  UNL1       -0.2715
     11 C         139.5855  141.0600  164.9848 C.2     1  UNL1        0.2514
     12 O         138.1622  140.6518  165.2248 O.2     1  UNL1       -0.2698
     13 C         140.7033  144.3098  158.7540 C.ar    1  UNL1        0.2543
     14 N         139.8834  143.3531  157.9401 N.ar    1  UNL1       -0.2060
     15 C         139.2085  143.8228  156.6855 C.ar    1  UNL1        0.1332
     16 C         139.3535  145.2492  156.2449 C.ar    1  UNL1        0.1784
     17 F         138.6786  145.7189  154.9904 F       1  UNL1       -0.2009
     18 C         140.1734  146.2060  157.0589 C.ar    1  UNL1        0.1332
     19 N         140.8483  145.7363  158.3134 N.ar    1  UNL1       -0.2060
     20 C         140.6327  140.7731  166.0197 C.ar    1  UNL1        0.0809
     21 C         141.3788  139.4722  165.9912 C.ar    1  UNL1        0.0068
     22 C         142.4260  139.1852  167.0260 C.ar    1  UNL1        0.0002
     23 C         142.7272  140.1993  168.0895 C.ar    1  UNL1        0.0061
     24 C         141.9811  141.5003  168.1180 C.ar    1  UNL1        0.0989
     25 C         140.9339  141.7872  167.0831 C.ar    1  UNL1        0.1483
     26 F         140.1878  143.0882  167.1117 F       1  UNL1       -0.2041
     27 C         142.2822  142.5145  169.1815 C.3     1  UNL1        0.4207
     28 F         142.5832  143.5286  170.2449 F       1  UNL1       -0.1658
     29 F         140.9181  142.3038  169.7685 F       1  UNL1       -0.1658
     30 F         143.6464  142.7251  168.5944 F       1  UNL1       -0.1658
@<TRIPOS>BOND
     1     2     1    1
     2     2     3    1
     3     3     4    1
     4     4     5   ar
     5     5     6   ar
     6     6     7   ar
     7     7     8   ar
     8     8    13    1
     9    13    14   ar
    10    14    15   ar
    11    15    16   ar
    12    16    17    1
    13    16    18   ar
    14    18    19   ar
    15     5     9    1
    16     9    10    1
    17    10    11   am
    18    11    12    2
    19    11    20    1
    20    20    21   ar
    21    21    22   ar
    22    22    23   ar
    23    23    24   ar
    24    24    27    1
    25    27    28    1
    26    27    29    1
    27    27    30    1
    28    24    25   ar
    29    25    26    1
    30    10     2    1
    31    25    20   ar
    32     8     4   ar
    33    19    13   ar
@<TRIPOS>MOLECULE
*****
 30 33 0 0 0
SMALL
GASTEIGER

@<TRIPOS>ATOM
      1 C         141.4360  145.5321  158.5253 C.3     1  UNL1        0.0219
      2 C         141.7701  144.1323  158.9485 C.3     1  UNL1        0.0820
      3 C         142.8240  143.3581  158.2137 C.3     1  UNL1        0.0671
      4 C         143.1581  141.9583  158.6368 C.ar    1  UNL1        0.0837
      5 C         142.4384  141.3328  159.7947 C.ar    1  UNL1        0.1159
      6 N         142.9781  139.9458  159.9814 N.ar    1  UNL1       -0.1314
      7 N         144.0314  139.7141  158.9389 N.ar    1  UNL1       -0.0576
      8 N         144.1427  140.9579  158.1079 N.ar    1  UNL1       -0.1813
      9 C         141.3845  142.1070  160.5295 C.3     1  UNL1        0.1426
     10 N         141.0504  143.5068  160.1063 N.am    1  UNL1       -0.2715
     11 C         139.9965  144.2811  160.8411 C.2     1  UNL1        0.2514
     12 O         139.6623  145.6808  160.4180 O.2     1  UNL1       -0.2698
     13 C         145.0749  141.1649  156.9511 C.ar    1  UNL1        0.2543
     14 N         144.8985  140.3664  155.6936 N.ar    1  UNL1       -0.2060
     15 C         145.8307  140.5734  154.5367 C.ar    1  UNL1        0.1332
     16 C         146.9392  141.5789  154.6374 C.ar    1  UNL1        0.1784
     17 F         147.8713  141.7859  153.4806 F       1  UNL1       -0.2009
     18 C         147.1155  142.3774  155.8949 C.ar    1  UNL1        0.1332
     19 N         146.1834  142.1705  157.0517 N.ar    1  UNL1       -0.2060
     20 C         139.2767  143.6555  161.9990 C.ar    1  UNL1        0.0809
     21 C         138.1068  142.7494  161.7538 C.ar    1  UNL1        0.0068
     22 C         137.3871  142.1238  162.9117 C.ar    1  UNL1        0.0002
     23 C         137.8373  142.4044  164.3148 C.ar    1  UNL1        0.0061
     24 C         139.0072  143.3106  164.5599 C.ar    1  UNL1        0.0989
     25 C         139.7269  143.9361  163.4021 C.ar    1  UNL1        0.1483
     26 F         140.8969  144.8423  163.6472 F       1  UNL1       -0.2041
     27 C         139.4575  143.5912  165.9630 C.3     1  UNL1        0.4207
     28 F         139.9078  143.8718  167.3660 F       1  UNL1       -0.1658
     29 F         140.1334  142.2531  166.0136 F       1  UNL1       -0.1658
     30 F         138.7816  144.9293  165.9123 F       1  UNL1       -0.1658
@<TRIPOS>BOND
     1     2     1    1
     2     2     3    1
     3     3     4    1
     4     4     5   ar
     5     5     6   ar
     6     6     7   ar
     7     7     8   ar
     8     8    13    1
     9    13    14   ar
    10    14    15   ar
    11    15    16   ar
    12    16    17    1
    13    16    18   ar
    14    18    19   ar
    15     5     9    1
    16     9    10    1
    17    10    11   am
    18    11    12    2
    19    11    20    1
    20    20    21   ar
    21    21    22   ar
    22    22    23   ar
    23    23    24   ar
    24    24    27    1
    25    27    28    1
    26    27    29    1
    27    27    30    1
    28    24    25   ar
    29    25    26    1
    30    10     2    1
    31    25    20   ar
    32     8     4   ar
    33    19    13   ar
@<TRIPOS>MOLECULE
*****
 30 33 0 0 0
SMALL
GASTEIGER

@<TRIPOS>ATOM
      1 C         138.1980  144.2623  164.9790 C.3     1  UNL1        0.0219
      2 C         139.3763  143.4147  164.6005 C.3     1  UNL1        0.0820
      3 C         140.1848  142.7357  165.6659 C.3     1  UNL1        0.0671
      4 C         141.3631  141.8882  165.2875 C.ar    1  UNL1        0.0837
      5 C         141.7329  141.7196  163.8435 C.ar    1  UNL1        0.1159
      6 N         142.9381  140.8293  163.7745 N.ar    1  UNL1       -0.1314
      7 N         143.3132  140.4476  165.1758 N.ar    1  UNL1       -0.0576
      8 N         142.3398  141.1020  166.1109 N.ar    1  UNL1       -0.1813
      9 C         140.9244  142.3986  162.7781 C.3     1  UNL1        0.1426
     10 N         139.7461  143.2462  163.1566 N.am    1  UNL1       -0.2715
     11 C         138.9375  143.9253  162.0911 C.2     1  UNL1        0.2514
     12 O         137.7592  144.7729  162.4696 O.2     1  UNL1       -0.2698
     13 C         142.3427  140.9899  167.6067 C.ar    1  UNL1        0.2543
     14 N         143.0831  141.9993  168.4330 N.ar    1  UNL1       -0.2060
     15 C         143.0860  141.8873  169.9288 C.ar    1  UNL1        0.1332
     16 C         142.3484  140.7658  170.5983 C.ar    1  UNL1        0.1784
     17 F         142.3513  140.6537  172.0941 F       1  UNL1       -0.2009
     18 C         141.6080  139.7564  169.7719 C.ar    1  UNL1        0.1332
     19 N         141.6051  139.8684  168.2761 N.ar    1  UNL1       -0.2060
     20 C         139.3073  143.7568  160.6472 C.ar    1  UNL1        0.0809
     21 C         138.7048  142.6424  159.8438 C.ar    1  UNL1        0.0068
     22 C         139.0746  142.4739  158.3999 C.ar    1  UNL1        0.0002
     23 C         140.0468  143.4197  157.7594 C.ar    1  UNL1        0.0061
     24 C         140.6492  144.5340  158.5627 C.ar    1  UNL1        0.0989
     25 C         140.2795  144.7025  160.0067 C.ar    1  UNL1        0.1483
     26 F         140.8819  145.8168  160.8100 F       1  UNL1       -0.2041
     27 C         141.6215  145.4799  157.9223 C.3     1  UNL1        0.4207
     28 F         142.5938  146.4256  157.2818 F       1  UNL1       -0.1658
     29 F         142.7500  144.5547  158.2695 F       1  UNL1       -0.1658
     30 F         140.4929  146.4049  157.5751 F       1  UNL1       -0.1658
@<TRIPOS>BOND
     1     2     1    1
     2     2     3    1
     3     3     4    1
     4     4     5   ar
     5     5     6   ar
     6     6     7   ar
     7     7     8   ar
     8     8    13    1
     9    13    14   ar
    10    14    15   ar
    11    15    16   ar
    12    16    17    1
    13    16    18   ar
    14    18    19   ar
    15     5     9    1
    16     9    10    1
    17    10    11   am
    18    11    12    2
    19    11    20    1
    20    20    21   ar
    21    21    22   ar
    22    22    23   ar
    23    23    24   ar
    24    24    27    1
    25    27    28    1
    26    27    29    1
    27    27    30    1
    28    24    25   ar
    29    25    26    1
    30    10     2    1
    31    25    20   ar
    32     8     4   ar
    33    19    13   ar
