@<TRIPOS>MOLECULE
*****
 34 36 0 0 0
SMALL
GASTEIGER

@<TRIPOS>ATOM
      1 C         139.6091  139.8848  165.4497 C.3     1  UNL1        0.1104
      2 C         138.3845  140.6594  165.0619 C.3     1  UNL1        0.0243
      3 N         138.7510  138.7078  165.8081 N.am    1  UNL1       -0.1662
      4 O         138.8654  137.4313  165.0287 O.3     1  UNL1       -0.2915
      5 C         137.7787  138.8073  166.9459 C.2     1  UNL1        0.3267
      6 O         136.9207  137.6304  167.3044 O.2     1  UNL1       -0.2627
      7 H         139.5343  137.5354  164.3340 H       1  UNL1        0.2417
      8 C         140.8336  139.1102  165.8375 C.3     1  UNL1        0.0300
      9 C         143.0441  139.0338  167.2006 C.3     1  UNL1        0.0080
     10 C         141.6375  139.5273  167.0332 C.3     1  UNL1        0.0603
     11 C         141.0348  140.4380  168.0615 C.ar    1  UNL1        0.1390
     12 N         141.4304  141.8842  168.1067 N.ar    1  UNL1       -0.2268
     13 C         140.8278  142.7948  169.1350 C.ar    1  UNL1        0.1314
     14 C         139.8295  142.2592  170.1183 C.ar    1  UNL1        0.1783
     15 F         139.2268  143.1699  171.1466 F       1  UNL1       -0.2009
     16 C         139.4340  140.8131  170.0731 C.ar    1  UNL1        0.1314
     17 N         140.0366  139.9024  169.0448 N.ar    1  UNL1       -0.2268
     18 C         140.4671  141.0618  165.0912 C.3     1  UNL1        0.1895
     19 S         140.3389  141.6994  163.7396 S.O2    1  UNL1        0.0456
     20 O         140.0730  143.0246  164.3899 O.2     1  UNL1       -0.1572
     21 O         140.6048  140.3742  163.0892 O.2     1  UNL1       -0.1572
     22 N         140.2107  142.3371  162.3879 N.3     1  UNL1       -0.1559
     23 C         141.2619  143.2929  161.9068 C.3     1  UNL1        0.1168
     24 C         141.1336  143.9305  160.5552 C.3     1  UNL1        0.1099
     25 N         139.9543  143.6124  159.6846 N.pl3   1  UNL1       -0.3045
     26 C         138.9031  142.6566  160.1657 C.3     1  UNL1        0.1099
     27 C         139.0313  142.0189  161.5173 C.3     1  UNL1        0.1168
     28 C         139.8261  144.2501  158.3329 C.ar    1  UNL1        0.0481
     29 C         140.3554  145.6347  158.1036 C.ar    1  UNL1        0.0168
     30 C         140.2272  146.2724  156.7519 C.ar    1  UNL1        0.0309
     31 C         139.5697  145.5254  155.6296 C.ar    1  UNL1        0.1402
     32 F         139.4415  146.1630  154.2780 F       1  UNL1       -0.2042
     33 C         139.0403  144.1407  155.8590 C.ar    1  UNL1        0.0309
     34 C         139.1685  143.5031  157.2106 C.ar    1  UNL1        0.0168
@<TRIPOS>BOND
     1    10     9    1
     2    10     8    1
     3     8     1    1
     4     1     2    1
     5     1    18    1
     6    18    19    1
     7    19    20    2
     8    19    21    2
     9    19    22    1
    10    22    23    1
    11    23    24    1
    12    24    25    1
    13    25    28    1
    14    28    29   ar
    15    29    30   ar
    16    30    31   ar
    17    31    32    1
    18    31    33   ar
    19    33    34   ar
    20    25    26    1
    21    26    27    1
    22     1     3    1
    23     3     4    1
    24     3     5   am
    25     5     6    2
    26    10    11    1
    27    11    12   ar
    28    12    13   ar
    29    13    14   ar
    30    14    15    1
    31    14    16   ar
    32    16    17   ar
    33    27    22    1
    34    17    11   ar
    35    34    28   ar
    36     4     7    1
@<TRIPOS>MOLECULE
*****
 34 36 0 0 0
SMALL
GASTEIGER

@<TRIPOS>ATOM
      1 C         141.4823  137.5295  155.2928 C.3     1  UNL1        0.1104
      2 C         141.6130  138.9657  154.8802 C.3     1  UNL1        0.0243
      3 N         140.1068  137.4832  154.6961 N.am    1  UNL1       -0.1662
      4 O         139.9262  137.6389  153.2151 O.3     1  UNL1       -0.2915
      5 C         138.9121  137.2813  155.5802 C.2     1  UNL1        0.3267
      6 O         137.5367  137.2350  154.9835 O.2     1  UNL1       -0.2627
      7 H         140.7920  137.7599  152.7947 H       1  UNL1        0.2417
      8 C         141.3516  136.0933  155.7054 C.3     1  UNL1        0.0300
      9 C         142.1396  134.9040  153.5341 C.3     1  UNL1        0.0080
     10 C         142.1769  135.0401  155.0275 C.3     1  UNL1        0.0603
     11 C         143.0395  134.1230  155.8429 C.ar    1  UNL1        0.1390
     12 N         143.6079  132.8805  155.2237 N.ar    1  UNL1       -0.2268
     13 C         144.4705  131.9634  156.0391 C.ar    1  UNL1        0.1314
     14 C         144.7646  132.2888  157.4736 C.ar    1  UNL1        0.1783
     15 F         145.6272  131.3717  158.2890 F       1  UNL1       -0.2009
     16 C         144.1962  133.5312  158.0927 C.ar    1  UNL1        0.1314
     17 N         143.3336  134.4483  157.2773 N.ar    1  UNL1       -0.2268
     18 C         142.8577  137.5758  155.8895 C.3     1  UNL1        0.1895
     19 S         143.1099  138.3787  157.1311 S.O2    1  UNL1        0.0456
     20 O         144.3020  139.0134  156.4785 O.2     1  UNL1       -0.1572
     21 O         141.9178  137.7440  157.7838 O.2     1  UNL1       -0.1572
     22 N         143.3622  139.1817  158.3728 N.3     1  UNL1       -0.1559
     23 C         143.2221  138.5410  159.7217 C.3     1  UNL1        0.1168
     24 C         143.4744  139.3440  160.9633 C.3     1  UNL1        0.1099
     25 N         143.8669  140.7878  160.8558 N.pl3   1  UNL1       -0.3045
     26 C         144.0070  141.4285  159.5069 C.3     1  UNL1        0.1099
     27 C         143.7547  140.6255  158.2653 C.3     1  UNL1        0.1168
     28 C         144.1192  141.5908  162.0975 C.ar    1  UNL1        0.0481
     29 C         145.2404  141.2136  163.0197 C.ar    1  UNL1        0.0168
     30 C         145.4927  142.0166  164.2613 C.ar    1  UNL1        0.0309
     31 C         144.6237  143.1968  164.5806 C.ar    1  UNL1        0.1402
     32 F         144.8760  143.9998  165.8222 F       1  UNL1       -0.2042
     33 C         143.5025  143.5740  163.6583 C.ar    1  UNL1        0.0309
     34 C         143.2502  142.7710  162.4168 C.ar    1  UNL1        0.0168
@<TRIPOS>BOND
     1    10     9    1
     2    10     8    1
     3     8     1    1
     4     1     2    1
     5     1    18    1
     6    18    19    1
     7    19    20    2
     8    19    21    2
     9    19    22    1
    10    22    23    1
    11    23    24    1
    12    24    25    1
    13    25    28    1
    14    28    29   ar
    15    29    30   ar
    16    30    31   ar
    17    31    32    1
    18    31    33   ar
    19    33    34   ar
    20    25    26    1
    21    26    27    1
    22     1     3    1
    23     3     4    1
    24     3     5   am
    25     5     6    2
    26    10    11    1
    27    11    12   ar
    28    12    13   ar
    29    13    14   ar
    30    14    15    1
    31    14    16   ar
    32    16    17   ar
    33    27    22    1
    34    17    11   ar
    35    34    28   ar
    36     4     7    1
@<TRIPOS>MOLECULE
*****
 34 36 0 0 0
SMALL
GASTEIGER

@<TRIPOS>ATOM
      1 C         140.0593  143.9111  163.1337 C.3     1  UNL1        0.1104
      2 C         139.4121  145.2632  163.0774 C.3     1  UNL1        0.0243
      3 N         138.7333  143.2900  163.4593 N.am    1  UNL1       -0.1662
      4 O         138.0384  143.6352  164.7431 O.3     1  UNL1       -0.2915
      5 C         138.1021  142.3239  162.5011 C.2     1  UNL1        0.3267
      6 O         136.7761  141.7028  162.8267 O.2     1  UNL1       -0.2627
      7 H         138.5775  144.2683  165.2425 H       1  UNL1        0.2417
      8 C         140.7064  142.5591  163.1900 C.3     1  UNL1        0.0300
      9 C         141.9107  142.5270  165.4918 C.3     1  UNL1        0.0080
     10 C         140.9586  141.9029  164.5150 C.3     1  UNL1        0.0603
     11 C         140.2589  140.6227  164.8633 C.ar    1  UNL1        0.1390
     12 N         138.9344  140.6592  165.5666 N.ar    1  UNL1       -0.2268
     13 C         138.2347  139.3789  165.9149 C.ar    1  UNL1        0.1314
     14 C         138.8594  138.0622  165.5599 C.ar    1  UNL1        0.1783
     15 F         138.1596  136.7819  165.9082 F       1  UNL1       -0.2009
     16 C         140.1837  138.0257  164.8566 C.ar    1  UNL1        0.1314
     17 N         140.8835  139.3059  164.5083 N.ar    1  UNL1       -0.2268
     18 C         141.3853  144.5322  162.8081 C.3     1  UNL1        0.1895
     19 S         142.1467  144.0827  161.5965 S.O2    1  UNL1        0.0456
     20 O         140.9130  144.2482  160.7597 O.2     1  UNL1       -0.1572
     21 O         143.3805  143.9171  162.4334 O.2     1  UNL1       -0.1572
     22 N         142.9082  143.6331  160.3849 N.3     1  UNL1       -0.1559
     23 C         144.1722  142.8413  160.5445 C.3     1  UNL1        0.1168
     24 C         144.9336  142.3918  159.3328 C.3     1  UNL1        0.1099
     25 N         144.4311  142.7341  157.9616 N.pl3   1  UNL1       -0.3045
     26 C         143.1672  143.5259  157.8020 C.3     1  UNL1        0.1099
     27 C         142.4057  143.9754  159.0136 C.3     1  UNL1        0.1168
     28 C         145.1926  142.2845  156.7499 C.ar    1  UNL1        0.0481
     29 C         146.6817  142.4559  156.6937 C.ar    1  UNL1        0.0168
     30 C         147.4432  142.0063  155.4820 C.ar    1  UNL1        0.0309
     31 C         146.7155  141.3854  154.3266 C.ar    1  UNL1        0.1402
     32 F         147.4769  140.9359  153.1149 F       1  UNL1       -0.2042
     33 C         145.2263  141.2141  154.3828 C.ar    1  UNL1        0.0309
     34 C         144.4649  141.6636  155.5945 C.ar    1  UNL1        0.0168
@<TRIPOS>BOND
     1    10     9    1
     2    10     8    1
     3     8     1    1
     4     1     2    1
     5     1    18    1
     6    18    19    1
     7    19    20    2
     8    19    21    2
     9    19    22    1
    10    22    23    1
    11    23    24    1
    12    24    25    1
    13    25    28    1
    14    28    29   ar
    15    29    30   ar
    16    30    31   ar
    17    31    32    1
    18    31    33   ar
    19    33    34   ar
    20    25    26    1
    21    26    27    1
    22     1     3    1
    23     3     4    1
    24     3     5   am
    25     5     6    2
    26    10    11    1
    27    11    12   ar
    28    12    13   ar
    29    13    14   ar
    30    14    15    1
    31    14    16   ar
    32    16    17   ar
    33    27    22    1
    34    17    11   ar
    35    34    28   ar
    36     4     7    1
@<TRIPOS>MOLECULE
*****
 34 36 0 0 0
SMALL
GASTEIGER

@<TRIPOS>ATOM
      1 C         139.5632  139.9002  165.3577 C.3     1  UNL1        0.1104
      2 C         138.2436  140.5610  165.0895 C.3     1  UNL1        0.0243
      3 N         138.8505  138.6584  165.8049 N.am    1  UNL1       -0.1662
      4 O         139.2235  137.3280  165.2208 O.3     1  UNL1       -0.2915
      5 C         137.7649  138.7469  166.8362 C.2     1  UNL1        0.3267
      6 O         137.0522  137.5051  167.2834 O.2     1  UNL1       -0.2627
      7 H         139.9368  137.4472  164.5744 H       1  UNL1        0.2417
      8 C         140.8828  139.2394  165.6258 C.3     1  UNL1        0.0300
      9 C         143.0159  138.9970  167.0892 C.3     1  UNL1        0.0080
     10 C         141.6422  139.5617  166.8786 C.3     1  UNL1        0.0603
     11 C         141.0280  140.4487  167.9207 C.ar    1  UNL1        0.1390
     12 N         141.3370  141.9165  167.9330 N.ar    1  UNL1       -0.2268
     13 C         140.7227  142.8035  168.9751 C.ar    1  UNL1        0.1314
     14 C         139.7996  142.2226  170.0049 C.ar    1  UNL1        0.1783
     15 F         139.1853  143.1096  171.0470 F       1  UNL1       -0.2009
     16 C         139.4906  140.7549  169.9926 C.ar    1  UNL1        0.1314
     17 N         140.1048  139.8679  168.9504 N.ar    1  UNL1       -0.2268
     18 C         140.2759  141.1420  164.9105 C.3     1  UNL1        0.1895
     19 S         141.0372  141.1455  163.6181 S.O2    1  UNL1        0.0456
     20 O         142.1357  141.9339  164.2674 O.2     1  UNL1       -0.1572
     21 O         139.9388  140.3571  162.9688 O.2     1  UNL1       -0.1572
     22 N         141.7987  141.1491  162.3257 N.3     1  UNL1       -0.1559
     23 C         141.0608  141.1087  161.0203 C.3     1  UNL1        0.1168
     24 C         141.8222  141.1123  159.7280 C.3     1  UNL1        0.1099
     25 N         143.3215  141.1563  159.7410 N.pl3   1  UNL1       -0.3045
     26 C         144.0594  141.1966  161.0463 C.3     1  UNL1        0.1099
     27 C         143.2980  141.1931  162.3386 C.3     1  UNL1        0.1168
     28 C         144.0830  141.1598  158.4486 C.ar    1  UNL1        0.0481
     29 C         143.8405  140.0837  157.4322 C.ar    1  UNL1        0.0168
     30 C         144.6019  140.0872  156.1398 C.ar    1  UNL1        0.0309
     31 C         145.6058  141.1671  155.8638 C.ar    1  UNL1        0.1402
     32 F         146.3672  141.1707  154.5715 F       1  UNL1       -0.2042
     33 C         145.8483  142.2433  156.8802 C.ar    1  UNL1        0.0309
     34 C         145.0869  142.2397  158.1725 C.ar    1  UNL1        0.0168
@<TRIPOS>BOND
     1    10     9    1
     2    10     8    1
     3     8     1    1
     4     1     2    1
     5     1    18    1
     6    18    19    1
     7    19    20    2
     8    19    21    2
     9    19    22    1
    10    22    23    1
    11    23    24    1
    12    24    25    1
    13    25    28    1
    14    28    29   ar
    15    29    30   ar
    16    30    31   ar
    17    31    32    1
    18    31    33   ar
    19    33    34   ar
    20    25    26    1
    21    26    27    1
    22     1     3    1
    23     3     4    1
    24     3     5   am
    25     5     6    2
    26    10    11    1
    27    11    12   ar
    28    12    13   ar
    29    13    14   ar
    30    14    15    1
    31    14    16   ar
    32    16    17   ar
    33    27    22    1
    34    17    11   ar
    35    34    28   ar
    36     4     7    1
@<TRIPOS>MOLECULE
*****
 34 36 0 0 0
SMALL
GASTEIGER

@<TRIPOS>ATOM
      1 C         139.9004  138.7906  156.2778 C.3     1  UNL1        0.1104
      2 C         139.0626  139.7780  155.5208 C.3     1  UNL1        0.0243
      3 N         139.3520  137.6783  155.4339 N.am    1  UNL1       -0.1662
      4 O         138.6868  136.5015  156.0842 O.3     1  UNL1       -0.2915
      5 C         139.4689  137.7427  153.9399 C.2     1  UNL1        0.3267
      6 O         138.9205  136.6304  153.0961 O.2     1  UNL1       -0.2627
      7 H         138.6953  136.6167  157.0473 H       1  UNL1        0.2417
      8 C         140.7383  137.8032  157.0348 C.3     1  UNL1        0.0300
      9 C         142.9966  138.1204  155.7901 C.3     1  UNL1        0.0080
     10 C         141.9651  137.2183  156.4002 C.3     1  UNL1        0.0603
     11 C         142.1604  135.7312  156.3756 C.ar    1  UNL1        0.1390
     12 N         141.3371  134.8818  155.4532 N.ar    1  UNL1       -0.2268
     13 C         141.5324  133.3948  155.4287 C.ar    1  UNL1        0.1314
     14 C         142.5510  132.7572  156.3265 C.ar    1  UNL1        0.1783
     15 F         142.7463  131.2702  156.3020 F       1  UNL1       -0.2009
     16 C         143.3742  133.6066  157.2489 C.ar    1  UNL1        0.1314
     17 N         143.1789  135.0936  157.2734 N.ar    1  UNL1       -0.2268
     18 C         140.4488  139.9029  157.1216 C.3     1  UNL1        0.1895
     19 S         140.2539  139.8822  158.6087 S.O2    1  UNL1        0.0456
     20 O         138.8319  139.4455  158.4162 O.2     1  UNL1       -0.1572
     21 O         141.6759  140.3190  158.8012 O.2     1  UNL1       -0.1572
     22 N         140.0589  139.8615  160.0959 N.3     1  UNL1       -0.1559
     23 C         140.2878  141.1071  160.8997 C.3     1  UNL1        0.1168
     24 C         140.0927  141.0864  162.3868 C.3     1  UNL1        0.1099
     25 N         139.6688  139.8201  163.0701 N.pl3   1  UNL1       -0.3045
     26 C         139.4399  138.5746  162.2663 C.3     1  UNL1        0.1099
     27 C         139.6349  138.5953  160.7792 C.3     1  UNL1        0.1168
     28 C         139.4738  139.7994  164.5573 C.ar    1  UNL1        0.0481
     29 C         138.3810  138.9665  165.1589 C.ar    1  UNL1        0.0168
     30 C         138.1860  138.9458  166.6461 C.ar    1  UNL1        0.0309
     31 C         139.0838  139.7581  167.5315 C.ar    1  UNL1        0.1402
     32 F         138.8889  139.7375  169.0186 F       1  UNL1       -0.2042
     33 C         140.1767  140.5911  166.9299 C.ar    1  UNL1        0.0309
     34 C         140.3717  140.6117  165.4428 C.ar    1  UNL1        0.0168
@<TRIPOS>BOND
     1    10     9    1
     2    10     8    1
     3     8     1    1
     4     1     2    1
     5     1    18    1
     6    18    19    1
     7    19    20    2
     8    19    21    2
     9    19    22    1
    10    22    23    1
    11    23    24    1
    12    24    25    1
    13    25    28    1
    14    28    29   ar
    15    29    30   ar
    16    30    31   ar
    17    31    32    1
    18    31    33   ar
    19    33    34   ar
    20    25    26    1
    21    26    27    1
    22     1     3    1
    23     3     4    1
    24     3     5   am
    25     5     6    2
    26    10    11    1
    27    11    12   ar
    28    12    13   ar
    29    13    14   ar
    30    14    15    1
    31    14    16   ar
    32    16    17   ar
    33    27    22    1
    34    17    11   ar
    35    34    28   ar
    36     4     7    1
@<TRIPOS>MOLECULE
*****
 34 36 0 0 0
SMALL
GASTEIGER

@<TRIPOS>ATOM
      1 C         139.5011  143.2157  163.0175 C.3     1  UNL1        0.1104
      2 C         138.1280  143.5793  162.5356 C.3     1  UNL1        0.0243
      3 N         139.4438  144.3291  164.0210 N.am    1  UNL1       -0.1662
      4 O         140.5009  145.3934  164.0216 O.3     1  UNL1       -0.2915
      5 C         138.3293  144.3784  165.0237 C.2     1  UNL1        0.3267
      6 O         138.2720  145.4919  166.0272 O.2     1  UNL1       -0.2627
      7 H         141.1412  145.2135  163.3156 H       1  UNL1        0.2417
      8 C         140.8743  142.8521  163.4994 C.3     1  UNL1        0.0300
      9 C         141.9057  142.6893  165.8785 C.3     1  UNL1        0.0080
     10 C         141.0437  142.1138  164.7941 C.3     1  UNL1        0.0603
     11 C         140.3512  140.7999  165.0044 C.ar    1  UNL1        0.1390
     12 N         138.9777  140.7639  165.6062 N.ar    1  UNL1       -0.2268
     13 C         138.2852  139.4501  165.8165 C.ar    1  UNL1        0.1314
     14 C         138.9662  138.1722  165.4249 C.ar    1  UNL1        0.1783
     15 F         138.2738  136.8583  165.6352 F       1  UNL1       -0.2009
     16 C         140.3397  138.2082  164.8232 C.ar    1  UNL1        0.1314
     17 N         141.0322  139.5221  164.6129 N.ar    1  UNL1       -0.2268
     18 C         139.5585  142.1022  162.0141 C.3     1  UNL1        0.1895
     19 S         140.6869  142.0388  161.0278 S.O2    1  UNL1        0.0456
     20 O         140.4692  143.4830  160.6859 O.2     1  UNL1       -0.1572
     21 O         140.9045  140.5946  161.3698 O.2     1  UNL1       -0.1572
     22 N         141.8153  141.9754  160.0415 N.3     1  UNL1       -0.1559
     23 C         141.9402  143.0241  158.9764 C.3     1  UNL1        0.1168
     24 C         143.0686  142.9607  157.9902 C.3     1  UNL1        0.1099
     25 N         144.0721  141.8485  158.0691 N.pl3   1  UNL1       -0.3045
     26 C         143.9471  140.7998  159.1342 C.3     1  UNL1        0.1099
     27 C         142.8188  140.8633  160.1205 C.3     1  UNL1        0.1168
     28 C         145.2005  141.7852  157.0828 C.ar    1  UNL1        0.0481
     29 C         146.4631  142.5539  157.3373 C.ar    1  UNL1        0.0168
     30 C         147.5915  142.4905  156.3510 C.ar    1  UNL1        0.0309
     31 C         147.4573  141.6583  155.1102 C.ar    1  UNL1        0.1402
     32 F         148.5856  141.5949  154.1240 F       1  UNL1       -0.2042
     33 C         146.1945  140.8896  154.8558 C.ar    1  UNL1        0.0309
     34 C         145.0662  140.9530  155.8420 C.ar    1  UNL1        0.0168
@<TRIPOS>BOND
     1    10     9    1
     2    10     8    1
     3     8     1    1
     4     1     2    1
     5     1    18    1
     6    18    19    1
     7    19    20    2
     8    19    21    2
     9    19    22    1
    10    22    23    1
    11    23    24    1
    12    24    25    1
    13    25    28    1
    14    28    29   ar
    15    29    30   ar
    16    30    31   ar
    17    31    32    1
    18    31    33   ar
    19    33    34   ar
    20    25    26    1
    21    26    27    1
    22     1     3    1
    23     3     4    1
    24     3     5   am
    25     5     6    2
    26    10    11    1
    27    11    12   ar
    28    12    13   ar
    29    13    14   ar
    30    14    15    1
    31    14    16   ar
    32    16    17   ar
    33    27    22    1
    34    17    11   ar
    35    34    28   ar
    36     4     7    1
@<TRIPOS>MOLECULE
*****
 34 36 0 0 0
SMALL
GASTEIGER

@<TRIPOS>ATOM
      1 C         142.8896  139.0406  157.9122 C.3     1  UNL1        0.1104
      2 C         143.7420  139.9049  157.0310 C.3     1  UNL1        0.0243
      3 N         143.5312  139.6453  159.1258 N.am    1  UNL1       -0.1662
      4 O         144.0967  138.7587  160.1955 O.3     1  UNL1       -0.2915
      5 C         143.6073  141.1364  159.2697 C.2     1  UNL1        0.3267
      6 O         144.2489  141.7410  160.4832 O.2     1  UNL1       -0.2627
      7 H         143.9659  137.8299  159.9483 H       1  UNL1        0.2417
      8 C         142.0372  138.1764  158.7934 C.3     1  UNL1        0.0300
      9 C         139.9432  139.7123  158.7119 C.3     1  UNL1        0.0080
     10 C         140.8211  138.7511  159.4573 C.3     1  UNL1        0.0603
     11 C         140.4828  138.3647  160.8666 C.ar    1  UNL1        0.1390
     12 N         141.5100  137.6895  161.7263 N.ar    1  UNL1       -0.2268
     13 C         141.1717  137.3031  163.1357 C.ar    1  UNL1        0.1314
     14 C         139.8062  137.5919  163.6853 C.ar    1  UNL1        0.1783
     15 F         139.4679  137.2055  165.0947 F       1  UNL1       -0.2009
     16 C         138.7791  138.2671  162.8256 C.ar    1  UNL1        0.1314
     17 N         139.1174  138.6535  161.4163 N.ar    1  UNL1       -0.2268
     18 C         142.2480  138.4360  156.6986 C.3     1  UNL1        0.1895
     19 S         142.2468  136.9475  156.5139 S.O2    1  UNL1        0.0456
     20 O         143.7451  136.9375  156.5842 O.2     1  UNL1       -0.1572
     21 O         140.7485  136.9574  156.4435 O.2     1  UNL1       -0.1572
     22 N         142.2456  135.4588  156.3291 N.3     1  UNL1       -0.1559
     23 C         143.1430  134.5983  157.1681 C.3     1  UNL1        0.1168
     24 C         143.1418  133.1097  156.9834 C.3     1  UNL1        0.1099
     25 N         142.2432  132.4818  155.9595 N.pl3   1  UNL1       -0.3045
     26 C         141.3458  133.3423  155.1205 C.3     1  UNL1        0.1099
     27 C         141.3470  134.8309  155.3053 C.3     1  UNL1        0.1168
     28 C         142.2421  130.9931  155.7748 C.ar    1  UNL1        0.0481
     29 C         141.2136  130.3475  154.8943 C.ar    1  UNL1        0.0168
     30 C         141.2124  128.8588  154.7095 C.ar    1  UNL1        0.0309
     31 C         142.2398  128.0159  155.4053 C.ar    1  UNL1        0.1402
     32 F         142.2387  126.5274  155.2206 F       1  UNL1       -0.2042
     33 C         143.2683  128.6617  156.2858 C.ar    1  UNL1        0.0309
     34 C         143.2694  130.1502  156.4705 C.ar    1  UNL1        0.0168
@<TRIPOS>BOND
     1    10     9    1
     2    10     8    1
     3     8     1    1
     4     1     2    1
     5     1    18    1
     6    18    19    1
     7    19    20    2
     8    19    21    2
     9    19    22    1
    10    22    23    1
    11    23    24    1
    12    24    25    1
    13    25    28    1
    14    28    29   ar
    15    29    30   ar
    16    30    31   ar
    17    31    32    1
    18    31    33   ar
    19    33    34   ar
    20    25    26    1
    21    26    27    1
    22     1     3    1
    23     3     4    1
    24     3     5   am
    25     5     6    2
    26    10    11    1
    27    11    12   ar
    28    12    13   ar
    29    13    14   ar
    30    14    15    1
    31    14    16   ar
    32    16    17   ar
    33    27    22    1
    34    17    11   ar
    35    34    28   ar
    36     4     7    1
@<TRIPOS>MOLECULE
*****
 34 36 0 0 0
SMALL
GASTEIGER

@<TRIPOS>ATOM
      1 C         142.2182  140.1068  165.2835 C.3     1  UNL1        0.1104
      2 C         140.9843  139.2539  165.2982 C.3     1  UNL1        0.0243
      3 N         142.8098  139.2699  166.3787 N.am    1  UNL1       -0.1662
      4 O         142.3308  139.4349  167.7906 O.3     1  UNL1       -0.2915
      5 C         143.8803  138.2680  166.0621 C.2     1  UNL1        0.3267
      6 O         144.4719  137.4312  167.1574 O.2     1  UNL1       -0.2627
      7 H         141.6425  140.1177  167.8209 H       1  UNL1        0.2417
      8 C         143.4520  140.9597  165.2687 C.3     1  UNL1        0.0300
      9 C         144.2306  143.4322  165.4436 C.3     1  UNL1        0.0080
     10 C         143.4685  142.2676  166.0030 C.3     1  UNL1        0.0603
     11 C         142.7229  142.4109  167.2966 C.ar    1  UNL1        0.1390
     12 N         141.2266  142.5180  167.2920 N.ar    1  UNL1       -0.2268
     13 C         140.4810  142.6613  168.5856 C.ar    1  UNL1        0.1314
     14 C         141.2316  142.6975  169.8839 C.ar    1  UNL1        0.1783
     15 F         140.4860  142.8409  171.1775 F       1  UNL1       -0.2009
     16 C         142.7278  142.5904  169.8884 C.ar    1  UNL1        0.1314
     17 N         143.4734  142.4471  168.5948 N.ar    1  UNL1       -0.2268
     18 C         141.6266  140.9437  164.1882 C.3     1  UNL1        0.1895
     19 S         142.2851  140.9907  162.8413 S.O2    1  UNL1        0.0456
     20 O         142.0196  142.4650  162.7630 O.2     1  UNL1       -0.1572
     21 O         142.5505  139.5165  162.9196 O.2     1  UNL1       -0.1572
     22 N         142.9436  141.0378  161.4944 N.3     1  UNL1       -0.1559
     23 C         142.7776  139.8943  160.5380 C.3     1  UNL1        0.1168
     24 C         143.4362  139.9414  159.1911 C.3     1  UNL1        0.1099
     25 N         144.2606  141.1321  158.8006 N.pl3   1  UNL1       -0.3045
     26 C         144.4266  142.2757  159.7570 C.3     1  UNL1        0.1099
     27 C         143.7681  142.2285  161.1039 C.3     1  UNL1        0.1168
     28 C         144.9192  141.1793  157.4537 C.ar    1  UNL1        0.0481
     29 C         145.9156  142.2566  157.1433 C.ar    1  UNL1        0.0168
     30 C         146.5742  142.3037  155.7964 C.ar    1  UNL1        0.0309
     31 C         146.2362  141.2734  154.7598 C.ar    1  UNL1        0.1402
     32 F         146.8946  141.3205  153.4130 F       1  UNL1       -0.2042
     33 C         145.2396  140.1961  155.0703 C.ar    1  UNL1        0.0309
     34 C         144.5812  140.1490  156.4172 C.ar    1  UNL1        0.0168
@<TRIPOS>BOND
     1    10     9    1
     2    10     8    1
     3     8     1    1
     4     1     2    1
     5     1    18    1
     6    18    19    1
     7    19    20    2
     8    19    21    2
     9    19    22    1
    10    22    23    1
    11    23    24    1
    12    24    25    1
    13    25    28    1
    14    28    29   ar
    15    29    30   ar
    16    30    31   ar
    17    31    32    1
    18    31    33   ar
    19    33    34   ar
    20    25    26    1
    21    26    27    1
    22     1     3    1
    23     3     4    1
    24     3     5   am
    25     5     6    2
    26    10    11    1
    27    11    12   ar
    28    12    13   ar
    29    13    14   ar
    30    14    15    1
    31    14    16   ar
    32    16    17   ar
    33    27    22    1
    34    17    11   ar
    35    34    28   ar
    36     4     7    1
@<TRIPOS>MOLECULE
*****
 34 36 0 0 0
SMALL
GASTEIGER

@<TRIPOS>ATOM
      1 C         140.1549  140.0631  165.7344 C.3     1  UNL1        0.1104
      2 C         139.2527  141.2387  165.5021 C.3     1  UNL1        0.0243
      3 N         139.1820  139.5144  166.7356 N.am    1  UNL1       -0.1662
      4 O         139.2729  139.9286  168.1745 O.3     1  UNL1       -0.2915
      5 C         138.1184  138.5516  166.2981 C.2     1  UNL1        0.3267
      6 O         137.1455  138.0029  167.2993 O.2     1  UNL1       -0.2627
      7 H         140.0093  140.5500  168.2862 H       1  UNL1        0.2417
      8 C         141.0571  138.8875  165.9667 C.3     1  UNL1        0.0300
      9 C         143.5809  138.3056  166.1705 C.3     1  UNL1        0.0080
     10 C         142.3851  139.0820  166.6364 C.3     1  UNL1        0.0603
     11 C         142.5173  140.0530  167.7721 C.ar    1  UNL1        0.1390
     12 N         142.1771  139.6244  169.1688 N.ar    1  UNL1       -0.2268
     13 C         142.3093  140.5954  170.3044 C.ar    1  UNL1        0.1314
     14 C         142.7817  141.9950  170.0434 C.ar    1  UNL1        0.1783
     15 F         142.9139  142.9659  171.1791 F       1  UNL1       -0.2009
     16 C         143.1218  142.4235  168.6468 C.ar    1  UNL1        0.1314
     17 N         142.9896  141.4525  167.5111 N.ar    1  UNL1       -0.2268
     18 C         141.1277  140.6118  164.7331 C.3     1  UNL1        0.1895
     19 S         140.6450  141.0576  163.3848 S.O2    1  UNL1        0.0456
     20 O         140.1296  139.6755  163.1124 O.2     1  UNL1       -0.1572
     21 O         141.1604  142.4396  163.6571 O.2     1  UNL1       -0.1572
     22 N         140.1622  141.5033  162.0363 N.3     1  UNL1       -0.1559
     23 C         138.9023  142.3088  161.9193 C.3     1  UNL1        0.1168
     24 C         138.4195  142.7545  160.5709 C.3     1  UNL1        0.1099
     25 N         139.1967  142.3947  159.3395 N.pl3   1  UNL1       -0.3045
     26 C         140.4566  141.5892  159.4564 C.3     1  UNL1        0.1099
     27 C         140.9393  141.1435  160.8048 C.3     1  UNL1        0.1168
     28 C         138.7139  142.8404  157.9910 C.ar    1  UNL1        0.0481
     29 C         139.4640  143.8989  157.2380 C.ar    1  UNL1        0.0168
     30 C         138.9812  144.3446  155.8895 C.ar    1  UNL1        0.0309
     31 C         137.7483  143.7319  155.2941 C.ar    1  UNL1        0.1402
     32 F         137.2655  144.1775  153.9457 F       1  UNL1       -0.2042
     33 C         136.9982  142.6734  156.0472 C.ar    1  UNL1        0.0309
     34 C         137.4810  142.2277  157.3956 C.ar    1  UNL1        0.0168
@<TRIPOS>BOND
     1    10     9    1
     2    10     8    1
     3     8     1    1
     4     1     2    1
     5     1    18    1
     6    18    19    1
     7    19    20    2
     8    19    21    2
     9    19    22    1
    10    22    23    1
    11    23    24    1
    12    24    25    1
    13    25    28    1
    14    28    29   ar
    15    29    30   ar
    16    30    31   ar
    17    31    32    1
    18    31    33   ar
    19    33    34   ar
    20    25    26    1
    21    26    27    1
    22     1     3    1
    23     3     4    1
    24     3     5   am
    25     5     6    2
    26    10    11    1
    27    11    12   ar
    28    12    13   ar
    29    13    14   ar
    30    14    15    1
    31    14    16   ar
    32    16    17   ar
    33    27    22    1
    34    17    11   ar
    35    34    28   ar
    36     4     7    1
