@<TRIPOS>MOLECULE
*****
 43 49 0 0 0
SMALL
GASTEIGER

@<TRIPOS>ATOM
      1 N         141.7577  141.2241  161.9957 N.am    1  UNL1       -0.2222
      2 C         141.9377  140.7716  160.5769 C.2     1  UNL1        0.3219
      3 O         142.5123  141.5879  159.4573 O.2     1  UNL1       -0.2512
      4 N         141.4422  139.3595  160.4743 N.am    1  UNL1       -0.1907
      5 C         140.9559  138.9393  161.8297 C.2     1  UNL1        0.2529
      6 O         140.3764  137.6016  162.1829 O.2     1  UNL1       -0.2724
      7 C         141.1509  140.0917  162.7700 C.3     1  UNL1        0.1391
      8 C         141.4049  141.3231  163.5880 C.3     1  UNL1        0.0449
      9 C         141.0546  141.3400  165.0464 C.3     1  UNL1        0.0746
     10 N         140.4504  140.1256  165.6868 N.3     1  UNL1       -0.2676
     11 C         140.1964  138.8942  164.8688 C.3     1  UNL1        0.0746
     12 C         140.5467  138.8773  163.4104 C.3     1  UNL1        0.0449
     13 C         141.5286  145.0687  162.9529 C.ar    1  UNL1        0.2293
     14 C         141.1656  143.7205  162.4047 C.ar    1  UNL1        0.0924
     15 C         142.1207  142.5723  162.5439 C.ar    1  UNL1        0.1453
     16 N         143.4388  142.7723  163.2314 N.ar    1  UNL1       -0.2084
     17 C         143.8018  144.1204  163.7797 C.ar    1  UNL1        0.2027
     18 N         142.8467  145.2687  163.6404 N.ar    1  UNL1       -0.1892
     19 C         139.5763  146.2313  161.6933 C.3     1  UNL1        0.2542
     20 O         140.5736  146.2170  162.8136 O.3     1  UNL1       -0.4560
     21 C         141.4343  138.5158  159.2342 C.ar    1  UNL1        0.0622
     22 C         140.1934  138.4257  158.3963 C.ar    1  UNL1        0.0154
     23 C         140.1856  137.5820  157.1561 C.ar    1  UNL1        0.0010
     24 C         141.4185  136.8283  156.7538 C.ar    1  UNL1       -0.0035
     25 C         142.6595  136.9184  157.5918 C.ar    1  UNL1        0.0010
     26 C         142.6672  137.7622  158.8320 C.ar    1  UNL1        0.0154
     27 C         141.4107  135.9846  155.5136 C.2     1  UNL1       -0.0161
     28 C         140.7152  136.4739  154.2780 C.2     1  UNL1       -0.0023
     29 C         140.7073  135.6302  153.0378 C.2     1  UNL1        0.0201
     30 C         141.3950  134.2971  153.0334 C.2     1  UNL1        0.0969
     31 N         141.5532  133.2530  151.9680 N.2     1  UNL1       -0.2228
     32 C         142.3466  132.1183  152.5453 C.2     1  UNL1        0.1986
     33 N         142.6786  132.4611  153.9674 N.2     1  UNL1       -0.2265
     34 C         142.0904  133.8077  154.2690 C.2     1  UNL1        0.0827
     35 C         142.0983  134.6514  155.5092 C.3     1  UNL1        0.0737
     36 C         140.1001  140.1426  167.1453 C.3     1  UNL1        0.1183
     37 C         140.8945  140.9864  168.0976 C.ar    1  UNL1        0.0712
     38 N         140.3403  142.2927  168.5837 N.ar    1  UNL1       -0.2471
     39 C         141.1348  143.1365  169.5361 C.ar    1  UNL1        0.0985
     40 C         142.4833  142.6739  170.0023 C.ar    1  UNL1        0.0203
     41 C         143.0375  141.3676  169.5161 C.ar    1  UNL1       -0.0015
     42 C         142.2431  140.5238  168.5638 C.ar    1  UNL1       -0.0069
     43 C         142.7973  139.2175  168.0777 C.3     1  UNL1        0.0323
@<TRIPOS>BOND
     1    19    20    1
     2    20    13    1
     3    13    14   ar
     4    14    15   ar
     5    15     1    1
     6     1     2   am
     7     2     3    2
     8     2     4   am
     9     4    21    1
    10    21    22   ar
    11    22    23   ar
    12    23    24   ar
    13    24    27    1
    14    27    28    2
    15    28    29    1
    16    29    30    2
    17    30    31    1
    18    31    32    2
    19    32    33    1
    20    33    34    2
    21    34    35    1
    22    24    25   ar
    23    25    26   ar
    24     4     5   am
    25     5     6    2
    26     5     7    1
    27     7     8    1
    28     8     9    1
    29     9    10    1
    30    10    36    1
    31    36    37    1
    32    37    38   ar
    33    38    39   ar
    34    39    40   ar
    35    40    41   ar
    36    41    42   ar
    37    42    43    1
    38    10    11    1
    39    11    12    1
    40    15    16   ar
    41    16    17   ar
    42    17    18   ar
    43    18    13   ar
    44     7     1    1
    45    42    37   ar
    46    26    21   ar
    47    12     7    1
    48    35    27    1
    49    34    30    1
@<TRIPOS>MOLECULE
*****
 43 49 0 0 0
SMALL
GASTEIGER

@<TRIPOS>ATOM
      1 N         138.5747  142.1472  158.1612 N.am    1  UNL1       -0.2222
      2 C         138.5076  141.4961  159.5110 C.2     1  UNL1        0.3219
      3 O         137.8954  140.1613  159.8166 O.2     1  UNL1       -0.2512
      4 N         139.1604  142.4142  160.5015 N.am    1  UNL1       -0.1907
      5 C         139.6308  143.6327  159.7639 C.2     1  UNL1        0.2529
      6 O         140.3389  144.8096  160.3667 O.2     1  UNL1       -0.2724
      7 C         139.2689  143.4677  158.3175 C.3     1  UNL1        0.1391
      8 C         138.8449  143.1640  156.9112 C.3     1  UNL1        0.0449
      9 C         139.1275  144.1468  155.8139 C.3     1  UNL1        0.0746
     10 N         139.8340  145.4334  156.1230 N.3     1  UNL1       -0.2676
     11 C         140.2580  145.7371  157.5294 C.3     1  UNL1        0.0746
     12 C         139.9754  144.7542  158.6266 C.3     1  UNL1        0.0449
     13 C         136.0676  141.2093  155.2313 C.ar    1  UNL1        0.2293
     14 C         136.6010  141.7788  156.5124 C.ar    1  UNL1        0.0924
     15 C         138.0412  141.5777  156.8802 C.ar    1  UNL1        0.1453
     16 N         138.9480  140.8071  155.9669 N.ar    1  UNL1       -0.2084
     17 C         138.4146  140.2377  154.6859 C.ar    1  UNL1        0.2027
     18 N         136.9743  140.4388  154.3181 N.ar    1  UNL1       -0.1892
     19 C         133.5559  140.6456  155.5826 C.3     1  UNL1        0.2542
     20 O         134.6274  141.4103  154.8635 O.3     1  UNL1       -0.4560
     21 C         139.3154  142.1588  161.9713 C.ar    1  UNL1        0.0622
     22 C         140.6850  142.0446  162.5723 C.ar    1  UNL1        0.0154
     23 C         140.8400  141.7891  164.0423 C.ar    1  UNL1        0.0010
     24 C         139.6255  141.6478  164.9112 C.ar    1  UNL1       -0.0035
     25 C         138.2559  141.7619  164.3102 C.ar    1  UNL1        0.0010
     26 C         138.1009  142.0174  162.8402 C.ar    1  UNL1        0.0154
     27 C         139.7806  141.3923  166.3811 C.2     1  UNL1       -0.0161
     28 C         139.2247  140.1378  166.9871 C.2     1  UNL1       -0.0023
     29 C         139.3797  139.8823  168.4570 C.2     1  UNL1        0.0201
     30 C         140.0907  140.8814  169.3209 C.2     1  UNL1        0.0969
     31 N         140.3944  140.9019  170.7897 N.2     1  UNL1       -0.2228
     32 C         141.1380  142.1693  171.0916 C.2     1  UNL1        0.1986
     33 N         141.2939  142.9318  169.8094 N.2     1  UNL1       -0.2265
     34 C         140.6466  142.1359  168.7150 C.2     1  UNL1        0.0827
     35 C         140.4915  142.3914  167.2452 C.3     1  UNL1        0.0737
     36 C         140.1166  146.4163  155.0256 C.3     1  UNL1        0.1183
     37 C         139.6458  147.8350  155.1499 C.ar    1  UNL1        0.0712
     38 N         138.8500  148.2589  156.3487 N.ar    1  UNL1       -0.2471
     39 C         138.3792  149.6777  156.4729 C.ar    1  UNL1        0.0985
     40 C         138.7043  150.6726  155.3985 C.ar    1  UNL1        0.0203
     41 C         139.5001  150.2487  154.1997 C.ar    1  UNL1       -0.0015
     42 C         139.9709  148.8300  154.0754 C.ar    1  UNL1       -0.0069
     43 C         140.7667  148.4061  152.8767 C.3     1  UNL1        0.0323
@<TRIPOS>BOND
     1    19    20    1
     2    20    13    1
     3    13    14   ar
     4    14    15   ar
     5    15     1    1
     6     1     2   am
     7     2     3    2
     8     2     4   am
     9     4    21    1
    10    21    22   ar
    11    22    23   ar
    12    23    24   ar
    13    24    27    1
    14    27    28    2
    15    28    29    1
    16    29    30    2
    17    30    31    1
    18    31    32    2
    19    32    33    1
    20    33    34    2
    21    34    35    1
    22    24    25   ar
    23    25    26   ar
    24     4     5   am
    25     5     6    2
    26     5     7    1
    27     7     8    1
    28     8     9    1
    29     9    10    1
    30    10    36    1
    31    36    37    1
    32    37    38   ar
    33    38    39   ar
    34    39    40   ar
    35    40    41   ar
    36    41    42   ar
    37    42    43    1
    38    10    11    1
    39    11    12    1
    40    15    16   ar
    41    16    17   ar
    42    17    18   ar
    43    18    13   ar
    44     7     1    1
    45    42    37   ar
    46    26    21   ar
    47    12     7    1
    48    35    27    1
    49    34    30    1
@<TRIPOS>MOLECULE
*****
 43 49 0 0 0
SMALL
GASTEIGER

@<TRIPOS>ATOM
      1 N         143.3623  140.8134  158.5654 N.am    1  UNL1       -0.2222
      2 C         143.0236  141.4290  159.8908 C.2     1  UNL1        0.3219
      3 O         143.1906  142.8730  160.2607 O.2     1  UNL1       -0.2512
      4 N         142.4885  140.3468  160.7812 N.am    1  UNL1       -0.1907
      5 C         142.4966  139.0626  160.0062 C.2     1  UNL1        0.2529
      6 O         142.0441  137.7248  160.5118 O.2     1  UNL1       -0.2724
      7 C         143.0367  139.3509  158.6367 C.3     1  UNL1        0.1391
      8 C         143.5912  139.7886  157.3136 C.3     1  UNL1        0.0449
      9 C         143.7735  138.7899  156.2094 C.3     1  UNL1        0.0746
     10 N         143.4013  137.3534  156.4285 N.3     1  UNL1       -0.2676
     11 C         142.8468  136.9157  157.7516 C.3     1  UNL1        0.0746
     12 C         142.6645  137.9144  158.8558 C.3     1  UNL1        0.0449
     13 C         145.9710  142.4875  156.0871 C.ar    1  UNL1        0.2293
     14 C         145.4058  141.7670  157.2751 C.ar    1  UNL1        0.0924
     15 C         143.9275  141.5339  157.3774 C.ar    1  UNL1        0.1453
     16 N         143.0145  142.0212  156.2916 N.ar    1  UNL1       -0.2084
     17 C         143.5796  142.7417  155.1036 C.ar    1  UNL1        0.2027
     18 N         145.0579  142.9749  155.0013 N.ar    1  UNL1       -0.1892
     19 C         148.3265  141.6954  155.3296 C.3     1  UNL1        0.2542
     20 O         147.4491  142.7207  155.9847 O.3     1  UNL1       -0.4560
     21 C         142.0266  140.5188  162.1978 C.ar    1  UNL1        0.0622
     22 C         142.9961  140.9575  163.2549 C.ar    1  UNL1        0.0154
     23 C         142.5341  141.1295  164.6715 C.ar    1  UNL1        0.0010
     24 C         141.1025  140.8628  165.0312 C.ar    1  UNL1       -0.0035
     25 C         140.1328  140.4241  163.9741 C.ar    1  UNL1        0.0010
     26 C         140.5949  140.2521  162.5574 C.ar    1  UNL1        0.0154
     27 C         140.6405  141.0348  166.4479 C.2     1  UNL1       -0.0161
     28 C         140.0385  139.8762  167.1863 C.2     1  UNL1       -0.0023
     29 C         139.5765  140.0482  168.6030 C.2     1  UNL1        0.0201
     30 C         139.7165  141.3788  169.2811 C.2     1  UNL1        0.0969
     31 N         139.3536  141.8457  170.6597 N.2     1  UNL1       -0.2228
     32 C         139.7314  143.2930  170.7732 C.2     1  UNL1        0.1986
     33 N         140.3277  143.7204  169.4649 N.2     1  UNL1       -0.2265
     34 C         140.3185  142.5374  168.5427 C.2     1  UNL1        0.0827
     35 C         140.7805  142.3654  167.1261 C.3     1  UNL1        0.0737
     36 C         143.5837  136.3546  155.3242 C.3     1  UNL1        0.1183
     37 C         143.1220  134.9395  155.5092 C.ar    1  UNL1        0.0712
     38 N         144.0509  133.9182  156.0959 N.ar    1  UNL1       -0.2471
     39 C         143.5892  132.5030  156.2809 C.ar    1  UNL1        0.0985
     40 C         142.1988  132.1091  155.8790 C.ar    1  UNL1        0.0203
     41 C         141.2699  133.1304  155.2922 C.ar    1  UNL1       -0.0015
     42 C         141.7315  134.5455  155.1073 C.ar    1  UNL1       -0.0069
     43 C         140.8027  135.5668  154.5205 C.3     1  UNL1        0.0323
@<TRIPOS>BOND
     1    19    20    1
     2    20    13    1
     3    13    14   ar
     4    14    15   ar
     5    15     1    1
     6     1     2   am
     7     2     3    2
     8     2     4   am
     9     4    21    1
    10    21    22   ar
    11    22    23   ar
    12    23    24   ar
    13    24    27    1
    14    27    28    2
    15    28    29    1
    16    29    30    2
    17    30    31    1
    18    31    32    2
    19    32    33    1
    20    33    34    2
    21    34    35    1
    22    24    25   ar
    23    25    26   ar
    24     4     5   am
    25     5     6    2
    26     5     7    1
    27     7     8    1
    28     8     9    1
    29     9    10    1
    30    10    36    1
    31    36    37    1
    32    37    38   ar
    33    38    39   ar
    34    39    40   ar
    35    40    41   ar
    36    41    42   ar
    37    42    43    1
    38    10    11    1
    39    11    12    1
    40    15    16   ar
    41    16    17   ar
    42    17    18   ar
    43    18    13   ar
    44     7     1    1
    45    42    37   ar
    46    26    21   ar
    47    12     7    1
    48    35    27    1
    49    34    30    1
@<TRIPOS>MOLECULE
*****
 43 49 0 0 0
SMALL
GASTEIGER

@<TRIPOS>ATOM
      1 N         139.1380  142.5540  158.3239 N.am    1  UNL1       -0.2222
      2 C         139.3030  141.9921  159.7050 C.2     1  UNL1        0.3219
      3 O         138.8625  140.6331  160.1624 O.2     1  UNL1       -0.2512
      4 N         139.9860  143.0277  160.5482 N.am    1  UNL1       -0.1907
      5 C         140.2430  144.2297  159.6884 C.2     1  UNL1        0.2529
      6 O         140.9075  145.5012  160.1263 O.2     1  UNL1       -0.2724
      7 C         139.7189  143.9369  158.3137 C.3     1  UNL1        0.1391
      8 C         139.1516  143.5037  156.9945 C.3     1  UNL1        0.0449
      9 C         139.1999  144.4310  155.8165 C.3     1  UNL1        0.0746
     10 N         139.8156  145.7916  155.9577 N.3     1  UNL1       -0.2676
     11 C         140.3829  146.2248  157.2770 C.3     1  UNL1        0.0746
     12 C         140.3345  145.2975  158.4550 C.3     1  UNL1        0.0449
     13 C         136.3873  141.2522  155.7766 C.ar    1  UNL1        0.2293
     14 C         137.0219  141.9506  156.9426 C.ar    1  UNL1        0.0924
     15 C         138.5033  141.8556  157.1580 C.ar    1  UNL1        0.1453
     16 N         139.3501  141.0623  156.2074 N.ar    1  UNL1       -0.2084
     17 C         138.7156  140.3639  155.0414 C.ar    1  UNL1        0.2027
     18 N         137.2341  140.4589  154.8260 N.ar    1  UNL1       -0.1892
     19 C         134.0054  140.2512  156.0491 C.3     1  UNL1        0.2542
     20 O         134.9060  141.3471  155.5611 O.3     1  UNL1       -0.4560
     21 C         140.3484  142.8863  161.9968 C.ar    1  UNL1        0.0622
     22 C         139.2697  142.7419  163.0291 C.ar    1  UNL1        0.0154
     23 C         139.6320  142.6005  164.4778 C.ar    1  UNL1        0.0010
     24 C         141.0731  142.6033  164.8942 C.ar    1  UNL1       -0.0035
     25 C         142.1518  142.7476  163.8619 C.ar    1  UNL1        0.0010
     26 C         141.7894  142.8891  162.4132 C.ar    1  UNL1        0.0154
     27 C         141.4354  142.4618  166.3429 C.2     1  UNL1       -0.0161
     28 C         142.8767  142.3872  166.7517 C.2     1  UNL1       -0.0023
     29 C         143.2391  142.2457  168.2004 C.2     1  UNL1        0.0201
     30 C         142.1600  142.1788  169.2402 C.2     1  UNL1        0.0969
     31 N         142.2120  142.0414  170.7330 N.2     1  UNL1       -0.2228
     32 C         140.8028  142.0311  171.2469 C.2     1  UNL1        0.1986
     33 N         139.8799  142.1622  170.0717 N.2     1  UNL1       -0.2265
     34 C         140.7188  142.2535  168.8315 C.2     1  UNL1        0.0827
     35 C         140.3564  142.3950  167.3829 C.3     1  UNL1        0.0737
     36 C         139.8639  146.7189  154.7796 C.3     1  UNL1        0.1183
     37 C         139.4667  148.1564  154.9399 C.ar    1  UNL1        0.0712
     38 N         138.6874  148.5891  156.1463 N.ar    1  UNL1       -0.2471
     39 C         138.2902  150.0267  156.3066 C.ar    1  UNL1        0.0985
     40 C         138.6722  151.0315  155.2604 C.ar    1  UNL1        0.0203
     41 C         139.4515  150.5987  154.0540 C.ar    1  UNL1       -0.0015
     42 C         139.8487  149.1612  153.8938 C.ar    1  UNL1       -0.0069
     43 C         140.6280  148.7285  152.6873 C.3     1  UNL1        0.0323
@<TRIPOS>BOND
     1    19    20    1
     2    20    13    1
     3    13    14   ar
     4    14    15   ar
     5    15     1    1
     6     1     2   am
     7     2     3    2
     8     2     4   am
     9     4    21    1
    10    21    22   ar
    11    22    23   ar
    12    23    24   ar
    13    24    27    1
    14    27    28    2
    15    28    29    1
    16    29    30    2
    17    30    31    1
    18    31    32    2
    19    32    33    1
    20    33    34    2
    21    34    35    1
    22    24    25   ar
    23    25    26   ar
    24     4     5   am
    25     5     6    2
    26     5     7    1
    27     7     8    1
    28     8     9    1
    29     9    10    1
    30    10    36    1
    31    36    37    1
    32    37    38   ar
    33    38    39   ar
    34    39    40   ar
    35    40    41   ar
    36    41    42   ar
    37    42    43    1
    38    10    11    1
    39    11    12    1
    40    15    16   ar
    41    16    17   ar
    42    17    18   ar
    43    18    13   ar
    44     7     1    1
    45    42    37   ar
    46    26    21   ar
    47    12     7    1
    48    35    27    1
    49    34    30    1
@<TRIPOS>MOLECULE
*****
 43 49 0 0 0
SMALL
GASTEIGER

@<TRIPOS>ATOM
      1 N         142.5346  138.7423  158.5030 N.am    1  UNL1       -0.2222
      2 C         142.0710  138.8360  159.9266 C.2     1  UNL1        0.3219
      3 O         141.1314  137.8887  160.6120 O.2     1  UNL1       -0.2512
      4 N         142.7121  140.0433  160.5443 N.am    1  UNL1       -0.1907
      5 C         143.5718  140.6957  159.5026 C.2     1  UNL1        0.2529
      6 O         144.3965  141.9346  159.6896 O.2     1  UNL1       -0.2724
      7 C         143.4622  139.8916  158.2410 C.3     1  UNL1        0.1391
      8 C         143.2549  138.9930  157.0580 C.3     1  UNL1        0.0449
      9 C         143.9506  139.2868  155.7620 C.3     1  UNL1        0.0746
     10 N         144.8536  140.4792  155.6490 N.3     1  UNL1       -0.2676
     11 C         145.0609  141.3778  156.8320 C.3     1  UNL1        0.0746
     12 C         144.3652  141.0840  158.1280 C.3     1  UNL1        0.0449
     13 C         142.5546  135.3700  156.4109 C.ar    1  UNL1        0.2293
     14 C         142.9493  136.4274  157.3989 C.ar    1  UNL1        0.0924
     15 C         142.1399  137.6849  157.5150 C.ar    1  UNL1        0.1453
     16 N         140.9358  137.8850  156.6432 N.ar    1  UNL1       -0.2084
     17 C         140.5411  136.8277  155.6552 C.ar    1  UNL1        0.2027
     18 N         141.3505  135.5701  155.5391 N.ar    1  UNL1       -0.1892
     19 C         143.9705  133.4951  157.5199 C.3     1  UNL1        0.2542
     20 O         143.3639  134.1125  156.2947 O.3     1  UNL1       -0.4560
     21 C         142.5261  140.5152  161.9559 C.ar    1  UNL1        0.0622
     22 C         141.3950  141.4404  162.2944 C.ar    1  UNL1        0.0154
     23 C         141.2090  141.9124  163.7060 C.ar    1  UNL1        0.0010
     24 C         142.1540  141.4592  164.7791 C.ar    1  UNL1       -0.0035
     25 C         143.2851  140.5339  164.4406 C.ar    1  UNL1        0.0010
     26 C         143.4711  140.0620  163.0289 C.ar    1  UNL1        0.0154
     27 C         141.9680  141.9311  166.1907 C.2     1  UNL1       -0.0161
     28 C         140.6022  142.3114  166.6806 C.2     1  UNL1       -0.0023
     29 C         140.4161  142.7834  168.0922 C.2     1  UNL1        0.0201
     30 C         141.5960  142.8750  169.0139 C.2     1  UNL1        0.0969
     31 N         141.7195  143.3021  170.4465 N.2     1  UNL1       -0.2228
     32 C         143.1618  143.1857  170.8421 C.2     1  UNL1        0.1986
     33 N         143.9295  142.6868  169.6540 N.2     1  UNL1       -0.2265
     34 C         142.9618  142.4948  168.5241 C.2     1  UNL1        0.0827
     35 C         143.1478  142.0228  167.1125 C.3     1  UNL1        0.0737
     36 C         145.5493  140.7729  154.3529 C.3     1  UNL1        0.1183
     37 C         145.8889  142.1875  153.9878 C.ar    1  UNL1        0.0712
     38 N         144.8314  143.0922  153.4280 N.ar    1  UNL1       -0.2471
     39 C         145.1711  144.5069  153.0629 C.ar    1  UNL1        0.0985
     40 C         146.5682  145.0169  153.2575 C.ar    1  UNL1        0.0203
     41 C         147.6257  144.1123  153.8173 C.ar    1  UNL1       -0.0015
     42 C         147.2861  142.6977  154.1824 C.ar    1  UNL1       -0.0069
     43 C         148.3436  141.7930  154.7422 C.3     1  UNL1        0.0323
@<TRIPOS>BOND
     1    19    20    1
     2    20    13    1
     3    13    14   ar
     4    14    15   ar
     5    15     1    1
     6     1     2   am
     7     2     3    2
     8     2     4   am
     9     4    21    1
    10    21    22   ar
    11    22    23   ar
    12    23    24   ar
    13    24    27    1
    14    27    28    2
    15    28    29    1
    16    29    30    2
    17    30    31    1
    18    31    32    2
    19    32    33    1
    20    33    34    2
    21    34    35    1
    22    24    25   ar
    23    25    26   ar
    24     4     5   am
    25     5     6    2
    26     5     7    1
    27     7     8    1
    28     8     9    1
    29     9    10    1
    30    10    36    1
    31    36    37    1
    32    37    38   ar
    33    38    39   ar
    34    39    40   ar
    35    40    41   ar
    36    41    42   ar
    37    42    43    1
    38    10    11    1
    39    11    12    1
    40    15    16   ar
    41    16    17   ar
    42    17    18   ar
    43    18    13   ar
    44     7     1    1
    45    42    37   ar
    46    26    21   ar
    47    12     7    1
    48    35    27    1
    49    34    30    1
@<TRIPOS>MOLECULE
*****
 43 49 0 0 0
SMALL
GASTEIGER

@<TRIPOS>ATOM
      1 N         142.0893  138.1371  158.7698 N.am    1  UNL1       -0.2222
      2 C         142.5509  138.2025  160.1956 C.2     1  UNL1        0.3219
      3 O         143.8570  137.6879  160.7240 O.2     1  UNL1       -0.2512
      4 N         141.4770  138.8730  161.0001 N.am    1  UNL1       -0.1907
      5 C         140.3518  139.2219  160.0716 C.2     1  UNL1        0.2529
      6 O         139.0727  139.9056  160.4543 O.2     1  UNL1       -0.2724
      7 C         140.7302  138.7671  158.6932 C.3     1  UNL1        0.1391
      8 C         141.2430  138.2609  157.3776 C.3     1  UNL1        0.0449
      9 C         140.4088  138.4099  156.1400 C.3     1  UNL1        0.0746
     10 N         139.0617  139.0651  156.2179 N.3     1  UNL1       -0.2676
     11 C         138.5488  139.5713  157.5335 C.3     1  UNL1        0.0746
     12 C         139.3831  139.4222  158.7711 C.3     1  UNL1        0.0449
     13 C         143.5793  135.4739  156.2326 C.ar    1  UNL1        0.2293
     14 C         142.8158  136.0655  157.3802 C.ar    1  UNL1        0.0924
     15 C         142.8528  137.5454  157.6222 C.ar    1  UNL1        0.1453
     16 N         143.6533  138.4337  156.7165 N.ar    1  UNL1       -0.2084
     17 C         144.4168  137.8421  155.5690 C.ar    1  UNL1        0.2027
     18 N         144.3798  136.3622  155.3270 N.ar    1  UNL1       -0.1892
     19 C         143.1593  133.0618  157.1015 C.3     1  UNL1        0.2542
     20 O         143.5423  133.9941  155.9906 O.3     1  UNL1       -0.4560
     21 C         141.5207  139.1466  162.4742 C.ar    1  UNL1        0.0622
     22 C         141.6229  138.0082  163.4456 C.ar    1  UNL1        0.0154
     23 C         141.6666  138.2818  164.9198 C.ar    1  UNL1        0.0010
     24 C         141.6081  139.6938  165.4227 C.ar    1  UNL1       -0.0035
     25 C         141.5059  140.8323  164.4513 C.ar    1  UNL1        0.0010
     26 C         141.4622  140.5586  162.9771 C.ar    1  UNL1        0.0154
     27 C         141.6518  139.9673  166.8969 C.2     1  UNL1       -0.0161
     28 C         142.5987  139.2029  167.7738 C.2     1  UNL1       -0.0023
     29 C         142.6424  139.4764  169.2480 C.2     1  UNL1        0.0201
     30 C         141.7392  140.5145  169.8452 C.2     1  UNL1        0.0969
     31 N         141.5599  140.9985  171.2536 N.2     1  UNL1       -0.2228
     32 C         140.5022  142.0621  171.2471 C.2     1  UNL1        0.1986
     33 N         140.0278  142.2355  169.8348 N.2     1  UNL1       -0.2265
     34 C         140.7923  141.2790  168.9682 C.2     1  UNL1        0.0827
     35 C         140.7486  141.0055  167.4941 C.3     1  UNL1        0.0737
     36 C         138.2274  139.2141  154.9802 C.3     1  UNL1        0.1183
     37 C         136.8892  139.8874  155.0543 C.ar    1  UNL1        0.0712
     38 N         135.6467  139.0681  155.2416 N.ar    1  UNL1       -0.2471
     39 C         134.3083  139.7416  155.3157 C.ar    1  UNL1        0.0985
     40 C         134.2125  141.2342  155.2026 C.ar    1  UNL1        0.0203
     41 C         135.4550  142.0535  155.0153 C.ar    1  UNL1       -0.0015
     42 C         136.7933  141.3801  154.9412 C.ar    1  UNL1       -0.0069
     43 C         138.0357  142.1994  154.7539 C.3     1  UNL1        0.0323
@<TRIPOS>BOND
     1    19    20    1
     2    20    13    1
     3    13    14   ar
     4    14    15   ar
     5    15     1    1
     6     1     2   am
     7     2     3    2
     8     2     4   am
     9     4    21    1
    10    21    22   ar
    11    22    23   ar
    12    23    24   ar
    13    24    27    1
    14    27    28    2
    15    28    29    1
    16    29    30    2
    17    30    31    1
    18    31    32    2
    19    32    33    1
    20    33    34    2
    21    34    35    1
    22    24    25   ar
    23    25    26   ar
    24     4     5   am
    25     5     6    2
    26     5     7    1
    27     7     8    1
    28     8     9    1
    29     9    10    1
    30    10    36    1
    31    36    37    1
    32    37    38   ar
    33    38    39   ar
    34    39    40   ar
    35    40    41   ar
    36    41    42   ar
    37    42    43    1
    38    10    11    1
    39    11    12    1
    40    15    16   ar
    41    16    17   ar
    42    17    18   ar
    43    18    13   ar
    44     7     1    1
    45    42    37   ar
    46    26    21   ar
    47    12     7    1
    48    35    27    1
    49    34    30    1
@<TRIPOS>MOLECULE
*****
 43 49 0 0 0
SMALL
GASTEIGER

@<TRIPOS>ATOM
      1 N         138.6861  140.6695  158.8315 N.am    1  UNL1       -0.2222
      2 C         138.4992  141.1005  160.2561 C.2     1  UNL1        0.3219
      3 O         137.5556  142.1614  160.7398 O.2     1  UNL1       -0.2512
      4 N         139.4218  140.2842  161.1121 N.am    1  UNL1       -0.1907
      5 C         140.1788  139.3488  160.2166 C.2     1  UNL1        0.2529
      6 O         141.2095  138.3505  160.6537 O.2     1  UNL1       -0.2724
      7 C         139.7241  139.5870  158.8070 C.3     1  UNL1        0.1391
      8 C         139.1733  139.9347  157.4559 C.3     1  UNL1        0.0449
      9 C         139.6695  139.2164  156.2362 C.3     1  UNL1        0.0746
     10 N         140.7166  138.1503  156.3676 N.3     1  UNL1       -0.2676
     11 C         141.2674  137.8026  157.7187 C.3     1  UNL1        0.0746
     12 C         140.7712  138.5209  158.9384 C.3     1  UNL1        0.0449
     13 C         137.8103  142.9448  155.7001 C.ar    1  UNL1        0.2293
     14 C         138.5343  142.3905  156.8911 C.ar    1  UNL1        0.0924
     15 C         137.9621  141.2239  157.6405 C.ar    1  UNL1        0.1453
     16 N         136.6659  140.6117  157.1989 N.ar    1  UNL1       -0.2084
     17 C         135.9419  141.1659  156.0080 C.ar    1  UNL1        0.2027
     18 N         136.5141  142.3326  155.2585 N.ar    1  UNL1       -0.1892
     19 C         137.7062  145.4488  155.0151 C.3     1  UNL1        0.2542
     20 O         138.3824  144.1114  154.9506 O.3     1  UNL1       -0.4560
     21 C         139.5626  140.3855  162.6020 C.ar    1  UNL1        0.0622
     22 C         140.7672  141.0515  163.1979 C.ar    1  UNL1        0.0154
     23 C         140.9080  141.1529  164.6879 C.ar    1  UNL1        0.0010
     24 C         139.8442  140.5881  165.5819 C.ar    1  UNL1       -0.0035
     25 C         138.6394  139.9221  164.9859 C.ar    1  UNL1        0.0010
     26 C         138.4987  139.8208  163.4960 C.ar    1  UNL1        0.0154
     27 C         139.9850  140.6895  167.0718 C.2     1  UNL1       -0.0161
     28 C         139.0575  139.9220  167.9667 C.2     1  UNL1       -0.0023
     29 C         139.1983  140.0234  169.4567 C.2     1  UNL1        0.0201
     30 C         140.2666  140.8922  170.0516 C.2     1  UNL1        0.0969
     31 N         140.6438  141.1876  171.4730 N.2     1  UNL1       -0.2228
     32 C         141.8045  142.1377  171.4566 C.2     1  UNL1        0.1986
     33 N         142.1446  142.4294  170.0251 N.2     1  UNL1       -0.2265
     34 C         141.1941  141.6596  169.1567 C.2     1  UNL1        0.0827
     35 C         141.0533  141.5583  167.6669 C.3     1  UNL1        0.0737
     36 C         141.2128  137.4320  155.1478 C.3     1  UNL1        0.1183
     37 C         141.8006  136.0578  155.2738 C.ar    1  UNL1        0.0712
     38 N         140.9081  134.8531  155.2275 N.ar    1  UNL1       -0.2471
     39 C         141.4959  133.4789  155.3536 C.ar    1  UNL1        0.0985
     40 C         142.9763  133.3093  155.5260 C.ar    1  UNL1        0.0203
     41 C         143.8688  134.5140  155.5723 C.ar    1  UNL1       -0.0015
     42 C         143.2810  135.8882  155.4463 C.ar    1  UNL1       -0.0069
     43 C         144.1736  137.0929  155.4926 C.3     1  UNL1        0.0323
@<TRIPOS>BOND
     1    19    20    1
     2    20    13    1
     3    13    14   ar
     4    14    15   ar
     5    15     1    1
     6     1     2   am
     7     2     3    2
     8     2     4   am
     9     4    21    1
    10    21    22   ar
    11    22    23   ar
    12    23    24   ar
    13    24    27    1
    14    27    28    2
    15    28    29    1
    16    29    30    2
    17    30    31    1
    18    31    32    2
    19    32    33    1
    20    33    34    2
    21    34    35    1
    22    24    25   ar
    23    25    26   ar
    24     4     5   am
    25     5     6    2
    26     5     7    1
    27     7     8    1
    28     8     9    1
    29     9    10    1
    30    10    36    1
    31    36    37    1
    32    37    38   ar
    33    38    39   ar
    34    39    40   ar
    35    40    41   ar
    36    41    42   ar
    37    42    43    1
    38    10    11    1
    39    11    12    1
    40    15    16   ar
    41    16    17   ar
    42    17    18   ar
    43    18    13   ar
    44     7     1    1
    45    42    37   ar
    46    26    21   ar
    47    12     7    1
    48    35    27    1
    49    34    30    1
@<TRIPOS>MOLECULE
*****
 43 49 0 0 0
SMALL
GASTEIGER

@<TRIPOS>ATOM
      1 N         143.7418  141.0535  158.5703 N.am    1  UNL1       -0.2222
      2 C         143.6622  141.6480  159.9452 C.2     1  UNL1        0.3219
      3 O         143.9558  143.0736  160.3076 O.2     1  UNL1       -0.2512
      4 N         143.2375  140.5665  160.8939 N.am    1  UNL1       -0.1907
      5 C         143.0546  139.3037  160.1055 C.2     1  UNL1        0.2529
      6 O         142.6339  137.9735  160.6563 O.2     1  UNL1       -0.2724
      7 C         143.3663  139.6046  158.6693 C.3     1  UNL1        0.1391
      8 C         143.7070  140.0529  157.2790 C.3     1  UNL1        0.0449
      9 C         143.6527  139.0764  156.1417 C.3     1  UNL1        0.0746
     10 N         143.2577  137.6516  156.3947 N.3     1  UNL1       -0.2676
     11 C         142.9170  137.2033  157.7850 C.3     1  UNL1        0.0746
     12 C         142.9713  138.1798  158.9223 C.3     1  UNL1        0.0449
     13 C         145.9637  142.6564  155.6991 C.ar    1  UNL1        0.2293
     14 C         145.5765  141.9297  156.9528 C.ar    1  UNL1        0.0924
     15 C         144.1290  141.7802  157.3165 C.ar    1  UNL1        0.1453
     16 N         143.0686  142.3575  156.4264 N.ar    1  UNL1       -0.2084
     17 C         143.4556  143.0842  155.1727 C.ar    1  UNL1        0.2027
     18 N         144.9033  143.2337  154.8090 N.ar    1  UNL1       -0.1892
     19 C         148.3661  141.6749  155.5781 C.3     1  UNL1        0.2542
     20 O         147.4112  142.8059  155.3354 O.3     1  UNL1       -0.4560
     21 C         143.0318  140.7209  162.3717 C.ar    1  UNL1        0.0622
     22 C         141.6577  140.9800  162.9146 C.ar    1  UNL1        0.0154
     23 C         141.4520  141.1343  164.3924 C.ar    1  UNL1        0.0010
     24 C         142.6203  141.0296  165.3273 C.ar    1  UNL1       -0.0035
     25 C         143.9945  140.7705  164.7843 C.ar    1  UNL1        0.0010
     26 C         144.2001  140.6161  163.3065 C.ar    1  UNL1        0.0154
     27 C         142.4146  141.1839  166.8051 C.2     1  UNL1       -0.0161
     28 C         143.2077  142.2013  167.5705 C.2     1  UNL1       -0.0023
     29 C         143.0020  142.3557  169.0483 C.2     1  UNL1        0.0201
     30 C         142.0032  141.4925  169.7606 C.2     1  UNL1        0.0969
     31 N         141.5869  141.4178  171.1997 N.2     1  UNL1       -0.2228
     32 C         140.5365  140.3541  171.3238 C.2     1  UNL1        0.1986
     33 N         140.3036  139.7715  169.9613 N.2     1  UNL1       -0.2265
     34 C         141.2101  140.4751  168.9952 C.2     1  UNL1        0.0827
     35 C         141.4158  140.3207  167.5175 C.3     1  UNL1        0.0737
     36 C         143.2034  136.6751  155.2573 C.3     1  UNL1        0.1183
     37 C         142.9171  135.2273  155.5249 C.ar    1  UNL1        0.0712
     38 N         143.9396  134.3762  156.2179 N.ar    1  UNL1       -0.2471
     39 C         143.6532  132.9282  156.4855 C.ar    1  UNL1        0.0985
     40 C         142.3445  132.3314  156.0601 C.ar    1  UNL1        0.0203
     41 C         141.3220  133.1825  155.3672 C.ar    1  UNL1       -0.0015
     42 C         141.6083  134.6304  155.0996 C.ar    1  UNL1       -0.0069
     43 C         140.5858  135.4815  154.4066 C.3     1  UNL1        0.0323
@<TRIPOS>BOND
     1    19    20    1
     2    20    13    1
     3    13    14   ar
     4    14    15   ar
     5    15     1    1
     6     1     2   am
     7     2     3    2
     8     2     4   am
     9     4    21    1
    10    21    22   ar
    11    22    23   ar
    12    23    24   ar
    13    24    27    1
    14    27    28    2
    15    28    29    1
    16    29    30    2
    17    30    31    1
    18    31    32    2
    19    32    33    1
    20    33    34    2
    21    34    35    1
    22    24    25   ar
    23    25    26   ar
    24     4     5   am
    25     5     6    2
    26     5     7    1
    27     7     8    1
    28     8     9    1
    29     9    10    1
    30    10    36    1
    31    36    37    1
    32    37    38   ar
    33    38    39   ar
    34    39    40   ar
    35    40    41   ar
    36    41    42   ar
    37    42    43    1
    38    10    11    1
    39    11    12    1
    40    15    16   ar
    41    16    17   ar
    42    17    18   ar
    43    18    13   ar
    44     7     1    1
    45    42    37   ar
    46    26    21   ar
    47    12     7    1
    48    35    27    1
    49    34    30    1
@<TRIPOS>MOLECULE
*****
 43 49 0 0 0
SMALL
GASTEIGER

@<TRIPOS>ATOM
      1 N         138.7635  141.0624  158.7836 N.am    1  UNL1       -0.2222
      2 C         138.5932  141.4773  160.2150 C.2     1  UNL1        0.3219
      3 O         137.7312  142.6003  160.7109 O.2     1  UNL1       -0.2512
      4 N         139.4362  140.5720  161.0634 N.am    1  UNL1       -0.1907
      5 C         140.1275  139.5977  160.1564 C.2     1  UNL1        0.2529
      6 O         141.0692  138.5110  160.5834 O.2     1  UNL1       -0.2724
      7 C         139.7117  139.9007  158.7473 C.3     1  UNL1        0.1391
      8 C         139.2081  140.3195  157.3979 C.3     1  UNL1        0.0449
      9 C         139.6611  139.5891  156.1686 C.3     1  UNL1        0.0746
     10 N         140.6176  138.4399  156.2887 N.3     1  UNL1       -0.2676
     11 C         141.1212  138.0211  157.6381 C.3     1  UNL1        0.0746
     12 C         140.6683  138.7515  158.8674 C.3     1  UNL1        0.0449
     13 C         136.1222  141.8117  155.9179 C.ar    1  UNL1        0.2293
     14 C         136.7840  141.1765  157.1047 C.ar    1  UNL1        0.0924
     15 C         138.1017  141.6976  157.5968 C.ar    1  UNL1        0.1453
     16 N         138.7575  142.8541  156.9021 N.ar    1  UNL1       -0.2084
     17 C         138.0958  143.4893  155.7153 C.ar    1  UNL1        0.2027
     18 N         136.7781  142.9681  155.2232 N.ar    1  UNL1       -0.1892
     19 C         134.0757  140.2376  156.2066 C.3     1  UNL1        0.2542
     20 O         134.8046  141.2906  155.4257 O.3     1  UNL1       -0.4560
     21 C         139.5653  140.6308  162.5566 C.ar    1  UNL1        0.0622
     22 C         140.8971  140.9195  163.1835 C.ar    1  UNL1        0.0154
     23 C         141.0261  140.9783  164.6768 C.ar    1  UNL1        0.0010
     24 C         139.8234  140.7484  165.5432 C.ar    1  UNL1       -0.0035
     25 C         138.4916  140.4597  164.9163 C.ar    1  UNL1        0.0010
     26 C         138.3626  140.4009  163.4230 C.ar    1  UNL1        0.0154
     27 C         139.9525  140.8072  167.0365 C.2     1  UNL1       -0.0161
     28 C         139.0665  139.9589  167.8999 C.2     1  UNL1       -0.0023
     29 C         139.1956  140.0177  169.3932 C.2     1  UNL1        0.0201
     30 C         140.2107  140.9248  170.0230 C.2     1  UNL1        0.0969
     31 N         140.5651  141.1930  171.4557 N.2     1  UNL1       -0.2228
     32 C         141.6702  142.2071  171.4778 C.2     1  UNL1        0.1986
     33 N         141.9987  142.5657  170.0588 N.2     1  UNL1       -0.2265
     34 C         141.0967  141.7731  169.1597 C.2     1  UNL1        0.0827
     35 C         140.9676  141.7144  167.6665 C.3     1  UNL1        0.0737
     36 C         141.0706  137.7095  155.0592 C.3     1  UNL1        0.1183
     37 C         141.7121  136.3593  155.1827 C.ar    1  UNL1        0.0712
     38 N         140.8654  135.1214  155.1558 N.ar    1  UNL1       -0.2471
     39 C         141.5070  133.7711  155.2792 C.ar    1  UNL1        0.0985
     40 C         142.9952  133.6588  155.4295 C.ar    1  UNL1        0.0203
     41 C         143.8419  134.8967  155.4564 C.ar    1  UNL1       -0.0015
     42 C         143.2004  136.2469  155.3330 C.ar    1  UNL1       -0.0069
     43 C         144.0470  137.4848  155.3599 C.3     1  UNL1        0.0323
@<TRIPOS>BOND
     1    19    20    1
     2    20    13    1
     3    13    14   ar
     4    14    15   ar
     5    15     1    1
     6     1     2   am
     7     2     3    2
     8     2     4   am
     9     4    21    1
    10    21    22   ar
    11    22    23   ar
    12    23    24   ar
    13    24    27    1
    14    27    28    2
    15    28    29    1
    16    29    30    2
    17    30    31    1
    18    31    32    2
    19    32    33    1
    20    33    34    2
    21    34    35    1
    22    24    25   ar
    23    25    26   ar
    24     4     5   am
    25     5     6    2
    26     5     7    1
    27     7     8    1
    28     8     9    1
    29     9    10    1
    30    10    36    1
    31    36    37    1
    32    37    38   ar
    33    38    39   ar
    34    39    40   ar
    35    40    41   ar
    36    41    42   ar
    37    42    43    1
    38    10    11    1
    39    11    12    1
    40    15    16   ar
    41    16    17   ar
    42    17    18   ar
    43    18    13   ar
    44     7     1    1
    45    42    37   ar
    46    26    21   ar
    47    12     7    1
    48    35    27    1
    49    34    30    1
