@<TRIPOS>MOLECULE
*****
 31 35 0 0 0
SMALL
GASTEIGER

@<TRIPOS>ATOM
      1 C         142.2051  143.7123  163.3539 C.ar    1  UNL1        0.0291
      2 C         141.4309  142.8081  164.2667 C.ar    1  UNL1        0.0053
      3 C         141.9674  142.4792  165.6283 C.ar    1  UNL1        0.0352
      4 C         143.2779  143.0545  166.0771 C.ar    1  UNL1        0.0850
      5 C         144.0521  143.9587  165.1644 C.ar    1  UNL1        0.0488
      6 C         143.5156  144.2876  163.8028 C.ar    1  UNL1        0.1416
      7 F         144.2898  145.1918  162.8900 F       1  UNL1       -0.2041
      8 N         143.8144  142.7255  167.4388 N.ar    1  UNL1       -0.2422
      9 C         143.0402  141.8214  168.3515 C.ar    1  UNL1        0.1175
     10 C         141.7297  141.2461  167.9027 C.ar    1  UNL1        0.0989
     11 C         141.1933  141.5750  166.5411 C.ar    1  UNL1        0.0826
     12 N         139.8828  140.8643  166.3750 N.ar    1  UNL1       -0.2815
     13 C         139.6093  140.0961  167.6340 C.ar    1  UNL1        0.3316
     14 O         138.4057  139.2419  167.9018 O.2     1  UNL1       -0.2463
     15 N         140.7508  140.3321  168.5782 N.ar    1  UNL1       -0.2765
     16 C         140.8890  139.7553  169.9560 C.3     1  UNL1        0.1352
     17 C         140.5958  144.6992  159.2690 C.ar    1  UNL1        0.0888
     18 C         141.7534  143.7559  159.4112 C.ar    1  UNL1        0.0173
     19 C         142.2898  143.4270  160.7729 C.ar    1  UNL1        0.0029
     20 C         141.6686  144.0413  161.9922 C.ar    1  UNL1        0.0213
     21 C         140.5110  144.9845  161.8499 C.ar    1  UNL1        0.0986
     22 N         139.9746  145.3135  160.4884 N.ar    1  UNL1       -0.2457
     23 C         140.0594  145.0281  157.9074 C.3     1  UNL1        0.1876
     24 C         139.3237  146.7914  156.1468 C.3     1  UNL1        0.1747
     25 O         139.9314  146.4594  157.4774 O.3     1  UNL1       -0.3447
     26 C         139.0007  140.9132  165.1628 C.3     1  UNL1        0.0947
     27 C         138.7574  140.0090  163.9910 C.3     1  UNL1        0.0521
     28 C         137.7532  140.9823  163.4484 C.3     1  UNL1        0.1143
     29 O         136.8711  141.0312  162.2362 O.3     1  UNL1       -0.3843
     30 C         137.9966  141.8866  164.6203 C.3     1  UNL1        0.0521
     31 H         137.0090  140.2323  161.7036 H       1  UNL1        0.2103
@<TRIPOS>BOND
     1    24    25    1
     2    25    23    1
     3    23    17    1
     4    17    18   ar
     5    18    19   ar
     6    19    20   ar
     7    20     1    1
     8     1     2   ar
     9     2     3   ar
    10     3     4   ar
    11     4     5   ar
    12     5     6   ar
    13     6     7    1
    14     4     8   ar
    15     8     9   ar
    16     9    10   ar
    17    10    11   ar
    18    11    12   ar
    19    26    12    1
    20    26    27    1
    21    27    28    1
    22    28    29    1
    23    28    30    1
    24    12    13   ar
    25    13    14    2
    26    13    15   ar
    27    15    16    1
    28    20    21   ar
    29    21    22   ar
    30    22    17   ar
    31     6     1   ar
    32    15    10   ar
    33    11     3   ar
    34    30    26    1
    35    29    31    1
@<TRIPOS>MOLECULE
*****
 31 35 0 0 0
SMALL
GASTEIGER

@<TRIPOS>ATOM
      1 C         143.1434  141.1425  163.2179 C.ar    1  UNL1        0.0291
      2 C         142.0461  140.6465  164.1123 C.ar    1  UNL1        0.0053
      3 C         142.0208  141.0428  165.5588 C.ar    1  UNL1        0.0352
      4 C         143.0928  141.9350  166.1108 C.ar    1  UNL1        0.0850
      5 C         144.1901  142.4310  165.2164 C.ar    1  UNL1        0.0488
      6 C         144.2154  142.0347  163.7700 C.ar    1  UNL1        0.1416
      7 F         145.3127  142.5307  162.8755 F       1  UNL1       -0.2041
      8 N         143.0675  142.3313  167.5574 N.ar    1  UNL1       -0.2422
      9 C         141.9702  141.8354  168.4518 C.ar    1  UNL1        0.1175
     10 C         140.8983  140.9431  167.8997 C.ar    1  UNL1        0.0989
     11 C         140.9235  140.5468  166.4533 C.ar    1  UNL1        0.0826
     12 N         139.7403  139.6621  166.1942 N.ar    1  UNL1       -0.2815
     13 C         138.9837  139.5116  167.4807 C.ar    1  UNL1        0.3316
     14 O         137.7312  138.7101  167.6783 O.2     1  UNL1       -0.2463
     15 N         139.6993  140.3033  168.5347 N.ar    1  UNL1       -0.2765
     16 C         139.2882  140.4325  169.9715 C.3     1  UNL1        0.1352
     17 C         143.2194  139.9536  158.8784 C.ar    1  UNL1        0.0888
     18 C         142.3476  141.0876  159.3302 C.ar    1  UNL1        0.0173
     19 C         142.3223  141.4839  160.7768 C.ar    1  UNL1        0.0029
     20 C         143.1687  140.7462  161.7714 C.ar    1  UNL1        0.0213
     21 C         144.0405  139.6122  161.3196 C.ar    1  UNL1        0.0986
     22 N         144.0659  139.2159  159.8732 N.ar    1  UNL1       -0.2457
     23 C         143.2448  139.5573  157.4320 C.3     1  UNL1        0.1876
     24 C         142.5873  137.0468  157.3090 C.3     1  UNL1        0.1747
     25 O         143.5742  138.1456  157.0468 O.3     1  UNL1       -0.3447
     26 C         139.3773  139.0376  164.8796 C.3     1  UNL1        0.0947
     27 C         138.5560  139.4573  163.6968 C.3     1  UNL1        0.0521
     28 C         138.8641  138.1542  163.0205 C.3     1  UNL1        0.1143
     29 O         138.5012  137.5297  161.7059 O.3     1  UNL1       -0.3843
     30 C         139.6855  137.7345  164.2034 C.3     1  UNL1        0.0521
     31 H         137.9360  138.1377  161.2041 H       1  UNL1        0.2103
@<TRIPOS>BOND
     1    24    25    1
     2    25    23    1
     3    23    17    1
     4    17    18   ar
     5    18    19   ar
     6    19    20   ar
     7    20     1    1
     8     1     2   ar
     9     2     3   ar
    10     3     4   ar
    11     4     5   ar
    12     5     6   ar
    13     6     7    1
    14     4     8   ar
    15     8     9   ar
    16     9    10   ar
    17    10    11   ar
    18    11    12   ar
    19    26    12    1
    20    26    27    1
    21    27    28    1
    22    28    29    1
    23    28    30    1
    24    12    13   ar
    25    13    14    2
    26    13    15   ar
    27    15    16    1
    28    20    21   ar
    29    21    22   ar
    30    22    17   ar
    31     6     1   ar
    32    15    10   ar
    33    11     3   ar
    34    30    26    1
    35    29    31    1
@<TRIPOS>MOLECULE
*****
 31 35 0 0 0
SMALL
GASTEIGER

@<TRIPOS>ATOM
      1 C         140.4096  138.7390  163.5887 C.ar    1  UNL1        0.0291
      2 C         141.1465  139.5707  164.5962 C.ar    1  UNL1        0.0053
      3 C         140.5816  139.7556  165.9734 C.ar    1  UNL1        0.0352
      4 C         139.2797  139.1087  166.3430 C.ar    1  UNL1        0.0850
      5 C         138.5427  138.2770  165.3355 C.ar    1  UNL1        0.0488
      6 C         139.1077  138.0922  163.9584 C.ar    1  UNL1        0.1416
      7 F         138.3707  137.2604  162.9508 F       1  UNL1       -0.2041
      8 N         138.7147  139.2936  167.7203 N.ar    1  UNL1       -0.2422
      9 C         139.4516  140.1254  168.7278 C.ar    1  UNL1        0.1175
     10 C         140.7536  140.7722  168.3581 C.ar    1  UNL1        0.0989
     11 C         141.3185  140.5873  166.9810 C.ar    1  UNL1        0.0826
     12 N         142.6126  141.3420  166.9056 N.ar    1  UNL1       -0.2815
     13 C         142.8475  141.9933  168.2363 C.ar    1  UNL1        0.3316
     14 O         144.0246  142.8470  168.6046 O.2     1  UNL1       -0.2463
     15 N         141.6985  141.6412  169.1340 N.ar    1  UNL1       -0.2765
     16 C         141.5249  142.0808  170.5576 C.3     1  UNL1        0.1352
     17 C         142.1044  138.1843  159.4571 C.ar    1  UNL1        0.0888
     18 C         142.8803  137.7212  160.6544 C.ar    1  UNL1        0.0173
     19 C         142.3154  137.9061  162.0316 C.ar    1  UNL1        0.0029
     20 C         140.9746  138.5541  162.2115 C.ar    1  UNL1        0.0213
     21 C         140.1987  139.0171  161.0142 C.ar    1  UNL1        0.0986
     22 N         140.7636  138.8322  159.6370 N.ar    1  UNL1       -0.2457
     23 C         142.6693  137.9994  158.0799 C.3     1  UNL1        0.1876
     24 C         143.3701  140.3032  157.1045 C.3     1  UNL1        0.1747
     25 O         143.7351  138.9267  157.5758 O.3     1  UNL1       -0.3447
     26 C         143.5137  141.4299  165.7097 C.3     1  UNL1        0.0947
     27 C         144.0225  142.5448  164.8448 C.3     1  UNL1        0.0521
     28 C         144.7880  141.5542  164.0183 C.3     1  UNL1        0.1143
     29 O         145.6891  141.6421  162.8224 O.3     1  UNL1       -0.3843
     30 C         144.2791  140.4393  164.8833 C.3     1  UNL1        0.0521
     31 H         145.7727  142.5688  162.5480 H       1  UNL1        0.2103
@<TRIPOS>BOND
     1    24    25    1
     2    25    23    1
     3    23    17    1
     4    17    18   ar
     5    18    19   ar
     6    19    20   ar
     7    20     1    1
     8     1     2   ar
     9     2     3   ar
    10     3     4   ar
    11     4     5   ar
    12     5     6   ar
    13     6     7    1
    14     4     8   ar
    15     8     9   ar
    16     9    10   ar
    17    10    11   ar
    18    11    12   ar
    19    26    12    1
    20    26    27    1
    21    27    28    1
    22    28    29    1
    23    28    30    1
    24    12    13   ar
    25    13    14    2
    26    13    15   ar
    27    15    16    1
    28    20    21   ar
    29    21    22   ar
    30    22    17   ar
    31     6     1   ar
    32    15    10   ar
    33    11     3   ar
    34    30    26    1
    35    29    31    1
@<TRIPOS>MOLECULE
*****
 31 35 0 0 0
SMALL
GASTEIGER

@<TRIPOS>ATOM
      1 C         140.4219  139.1244  165.3127 C.ar    1  UNL1        0.0291
      2 C         141.3140  139.8007  164.3143 C.ar    1  UNL1        0.0053
      3 C         141.2587  139.4032  162.8690 C.ar    1  UNL1        0.0352
      4 C         140.3114  138.3294  162.4222 C.ar    1  UNL1        0.0850
      5 C         139.4194  137.6532  163.4206 C.ar    1  UNL1        0.0488
      6 C         139.4746  138.0507  164.8659 C.ar    1  UNL1        0.1416
      7 F         138.5825  137.3744  165.8644 F       1  UNL1       -0.2041
      8 N         140.2562  137.9320  160.9768 N.ar    1  UNL1       -0.2422
      9 C         141.1482  138.6082  159.9784 C.ar    1  UNL1        0.1175
     10 C         142.0955  139.6820  160.4252 C.ar    1  UNL1        0.0989
     11 C         142.1508  140.0794  161.8705 C.ar    1  UNL1        0.0826
     12 N         143.1778  141.1632  162.0143 N.ar    1  UNL1       -0.2815
     13 C         143.7573  141.4355  160.6579 C.ar    1  UNL1        0.3316
     14 O         144.8193  142.4459  160.3394 O.2     1  UNL1       -0.2463
     15 N         143.0884  140.5201  159.6758 N.ar    1  UNL1       -0.2765
     16 C         143.3641  140.4542  158.2027 C.3     1  UNL1        0.1352
     17 C         140.5875  140.3168  169.6488 C.ar    1  UNL1        0.0888
     18 C         141.8558  140.1796  168.8597 C.ar    1  UNL1        0.0173
     19 C         141.8006  139.7821  167.4143 C.ar    1  UNL1        0.0029
     20 C         140.4771  139.5219  166.7581 C.ar    1  UNL1        0.0213
     21 C         139.2089  139.6591  167.5472 C.ar    1  UNL1        0.0986
     22 N         139.2640  140.0565  168.9925 N.ar    1  UNL1       -0.2457
     23 C         140.6427  140.7142  171.0941 C.3     1  UNL1        0.1876
     24 C         140.0344  143.1555  170.4460 C.3     1  UNL1        0.1747
     25 O         140.3563  142.1314  171.4936 O.3     1  UNL1       -0.3447
     26 C         143.5585  141.8534  163.2905 C.3     1  UNL1        0.0947
     27 C         143.0758  143.0700  164.0231 C.3     1  UNL1        0.0521
     28 C         144.0969  142.8295  165.0953 C.3     1  UNL1        0.1143
     29 O         144.4776  143.5197  166.3715 O.3     1  UNL1       -0.3843
     30 C         144.5797  141.6128  164.3627 C.3     1  UNL1        0.0521
     31 H         143.9114  144.2967  166.5002 H       1  UNL1        0.2103
@<TRIPOS>BOND
     1    24    25    1
     2    25    23    1
     3    23    17    1
     4    17    18   ar
     5    18    19   ar
     6    19    20   ar
     7    20     1    1
     8     1     2   ar
     9     2     3   ar
    10     3     4   ar
    11     4     5   ar
    12     5     6   ar
    13     6     7    1
    14     4     8   ar
    15     8     9   ar
    16     9    10   ar
    17    10    11   ar
    18    11    12   ar
    19    26    12    1
    20    26    27    1
    21    27    28    1
    22    28    29    1
    23    28    30    1
    24    12    13   ar
    25    13    14    2
    26    13    15   ar
    27    15    16    1
    28    20    21   ar
    29    21    22   ar
    30    22    17   ar
    31     6     1   ar
    32    15    10   ar
    33    11     3   ar
    34    30    26    1
    35    29    31    1
@<TRIPOS>MOLECULE
*****
 31 35 0 0 0
SMALL
GASTEIGER

@<TRIPOS>ATOM
      1 C         141.3612  140.0337  164.7137 C.ar    1  UNL1        0.0291
      2 C         141.0033  141.1892  163.8269 C.ar    1  UNL1        0.0053
      3 C         141.3419  141.1466  162.3663 C.ar    1  UNL1        0.0352
      4 C         142.0385  139.9485  161.7925 C.ar    1  UNL1        0.0850
      5 C         142.3964  138.7929  162.6793 C.ar    1  UNL1        0.0488
      6 C         142.0578  138.8355  164.1400 C.ar    1  UNL1        0.1416
      7 F         142.4157  137.6799  165.0269 F       1  UNL1       -0.2041
      8 N         142.3771  139.9059  160.3318 N.ar    1  UNL1       -0.2422
      9 C         142.0192  141.0615  159.4449 C.ar    1  UNL1        0.1175
     10 C         141.3226  142.2596  160.0187 C.ar    1  UNL1        0.0989
     11 C         140.9840  142.3022  161.4793 C.ar    1  UNL1        0.0826
     12 N         140.3003  143.6077  161.7588 N.ar    1  UNL1       -0.2815
     13 C         140.2164  144.3720  160.4709 C.ar    1  UNL1        0.3316
     14 O         139.6075  145.7310  160.2901 O.2     1  UNL1       -0.2463
     15 N         140.8482  143.5388  159.3954 N.ar    1  UNL1       -0.2765
     16 C         140.9821  143.9183  157.9503 C.3     1  UNL1        0.1352
     17 C         140.3454  140.1614  169.0958 C.ar    1  UNL1        0.0888
     18 C         139.2634  139.9376  168.0813 C.ar    1  UNL1        0.0173
     19 C         139.6020  139.8950  166.6206 C.ar    1  UNL1        0.0029
     20 C         141.0226  140.0762  166.1745 C.ar    1  UNL1        0.0213
     21 C         142.1046  140.3000  167.1889 C.ar    1  UNL1        0.0986
     22 N         141.7660  140.3426  168.6496 N.ar    1  UNL1       -0.2457
     23 C         140.0068  140.2039  170.5564 C.3     1  UNL1        0.1876
     24 C         139.8356  142.7950  170.6424 C.3     1  UNL1        0.1747
     25 O         140.1339  141.4896  171.3186 O.3     1  UNL1       -0.3447
     26 C         139.7901  144.0681  163.0921 C.3     1  UNL1        0.0947
     27 C         138.4721  143.9992  163.8048 C.3     1  UNL1        0.0521
     28 C         139.0687  144.7193  164.9778 C.3     1  UNL1        0.1143
     29 O         138.5585  145.1797  166.3111 O.3     1  UNL1       -0.3843
     30 C         140.3868  144.7882  164.2650 C.3     1  UNL1        0.0521
     31 H         137.6231  144.9388  166.4001 H       1  UNL1        0.2103
@<TRIPOS>BOND
     1    24    25    1
     2    25    23    1
     3    23    17    1
     4    17    18   ar
     5    18    19   ar
     6    19    20   ar
     7    20     1    1
     8     1     2   ar
     9     2     3   ar
    10     3     4   ar
    11     4     5   ar
    12     5     6   ar
    13     6     7    1
    14     4     8   ar
    15     8     9   ar
    16     9    10   ar
    17    10    11   ar
    18    11    12   ar
    19    26    12    1
    20    26    27    1
    21    27    28    1
    22    28    29    1
    23    28    30    1
    24    12    13   ar
    25    13    14    2
    26    13    15   ar
    27    15    16    1
    28    20    21   ar
    29    21    22   ar
    30    22    17   ar
    31     6     1   ar
    32    15    10   ar
    33    11     3   ar
    34    30    26    1
    35    29    31    1
@<TRIPOS>MOLECULE
*****
 31 35 0 0 0
SMALL
GASTEIGER

@<TRIPOS>ATOM
      1 C         140.7372  143.2182  164.7772 C.ar    1  UNL1        0.0291
      2 C         141.4765  143.0134  163.4883 C.ar    1  UNL1        0.0053
      3 C         141.1235  143.8334  162.2828 C.ar    1  UNL1        0.0352
      4 C         140.0313  144.8581  162.3664 C.ar    1  UNL1        0.0850
      5 C         139.2920  145.0629  163.6553 C.ar    1  UNL1        0.0488
      6 C         139.6449  144.2429  164.8608 C.ar    1  UNL1        0.1416
      7 F         138.9056  144.4477  166.1498 F       1  UNL1       -0.2041
      8 N         139.6783  145.6780  161.1608 N.ar    1  UNL1       -0.2422
      9 C         140.4176  145.4732  159.8719 C.ar    1  UNL1        0.1175
     10 C         141.5099  144.4485  159.7883 C.ar    1  UNL1        0.0989
     11 C         141.8628  143.6286  160.9938 C.ar    1  UNL1        0.0826
     12 N         142.9775  142.7001  160.6127 N.ar    1  UNL1       -0.2815
     13 C         143.3136  142.9462  159.1717 C.ar    1  UNL1        0.3316
     14 O         144.3710  142.2364  158.3792 O.2     1  UNL1       -0.2463
     15 N         142.4065  144.0268  158.6622 N.ar    1  UNL1       -0.2765
     16 C         142.3976  144.5873  157.2708 C.3     1  UNL1        0.1352
     17 C         141.7960  140.7584  168.3937 C.ar    1  UNL1        0.0888
     18 C         142.8219  141.6597  167.7731 C.ar    1  UNL1        0.0173
     19 C         142.4690  142.4797  166.5676 C.ar    1  UNL1        0.0029
     20 C         141.0901  142.3983  165.9827 C.ar    1  UNL1        0.0213
     21 C         140.0642  141.4970  166.6033 C.ar    1  UNL1        0.0986
     22 N         140.4171  140.6771  167.8088 N.ar    1  UNL1       -0.2457
     23 C         142.1488  139.9385  169.5992 C.3     1  UNL1        0.1876
     24 C         141.2859  141.8072  171.1845 C.3     1  UNL1        0.1747
     25 O         142.0666  140.5447  170.9687 O.3     1  UNL1       -0.3447
     26 C         143.6400  141.7010  161.5143 C.3     1  UNL1        0.0947
     27 C         144.8523  141.7094  162.3975 C.3     1  UNL1        0.0521
     28 C         144.5768  140.2879  162.7893 C.3     1  UNL1        0.1143
     29 O         145.2392  139.2888  163.6909 O.3     1  UNL1       -0.3843
     30 C         143.3643  140.2795  161.9061 C.3     1  UNL1        0.0521
     31 H         146.0235  139.6898  164.0971 H       1  UNL1        0.2103
@<TRIPOS>BOND
     1    24    25    1
     2    25    23    1
     3    23    17    1
     4    17    18   ar
     5    18    19   ar
     6    19    20   ar
     7    20     1    1
     8     1     2   ar
     9     2     3   ar
    10     3     4   ar
    11     4     5   ar
    12     5     6   ar
    13     6     7    1
    14     4     8   ar
    15     8     9   ar
    16     9    10   ar
    17    10    11   ar
    18    11    12   ar
    19    26    12    1
    20    26    27    1
    21    27    28    1
    22    28    29    1
    23    28    30    1
    24    12    13   ar
    25    13    14    2
    26    13    15   ar
    27    15    16    1
    28    20    21   ar
    29    21    22   ar
    30    22    17   ar
    31     6     1   ar
    32    15    10   ar
    33    11     3   ar
    34    30    26    1
    35    29    31    1
@<TRIPOS>MOLECULE
*****
 31 35 0 0 0
SMALL
GASTEIGER

@<TRIPOS>ATOM
      1 C         142.8612  142.2263  165.3537 C.ar    1  UNL1        0.0291
      2 C         142.1343  141.3812  164.3501 C.ar    1  UNL1        0.0053
      3 C         142.6278  141.3053  162.9357 C.ar    1  UNL1        0.0352
      4 C         143.8482  142.0747  162.5248 C.ar    1  UNL1        0.0850
      5 C         144.5751  142.9199  163.5284 C.ar    1  UNL1        0.0488
      6 C         144.0816  142.9957  164.9429 C.ar    1  UNL1        0.1416
      7 F         144.8085  143.8409  165.9465 F       1  UNL1       -0.2041
      8 N         144.3416  141.9988  161.1103 N.ar    1  UNL1       -0.2422
      9 C         143.6147  141.1536  160.1067 C.ar    1  UNL1        0.1175
     10 C         142.3944  140.3843  160.5175 C.ar    1  UNL1        0.0989
     11 C         141.9009  140.4601  161.9320 C.ar    1  UNL1        0.0826
     12 N         140.6792  139.5971  162.0436 N.ar    1  UNL1       -0.2815
     13 C         140.4176  138.9878  160.6981 C.ar    1  UNL1        0.3316
     14 O         139.2933  138.0556  160.3559 O.2     1  UNL1       -0.2463
     15 N         141.4776  139.4743  159.7550 N.ar    1  UNL1       -0.2765
     16 C         141.5995  139.1141  158.3039 C.3     1  UNL1        0.1352
     17 C         141.3808  142.4539  169.5972 C.ar    1  UNL1        0.0888
     18 C         142.8336  142.2016  169.3222 C.ar    1  UNL1        0.0173
     19 C         143.3271  142.1258  167.9077 C.ar    1  UNL1        0.0029
     20 C         142.3677  142.3022  166.7682 C.ar    1  UNL1        0.0213
     21 C         140.9149  142.5545  167.0432 C.ar    1  UNL1        0.0986
     22 N         140.4214  142.6304  168.4576 N.ar    1  UNL1       -0.2457
     23 C         140.8873  142.5298  171.0116 C.3     1  UNL1        0.1876
     24 C         140.2129  140.0211  170.9713 C.3     1  UNL1        0.1747
     25 O         140.5027  141.2762  171.7400 O.3     1  UNL1       -0.3447
     26 C         139.8625  139.3811  163.2831 C.3     1  UNL1        0.0947
     27 C         138.6778  140.0598  163.9043 C.3     1  UNL1        0.0521
     28 C         138.7075  139.0757  165.0361 C.3     1  UNL1        0.1143
     29 O         137.8908  138.8598  166.2755 O.3     1  UNL1       -0.3843
     30 C         139.8923  138.3971  164.4149 C.3     1  UNL1        0.0521
     31 H         137.1911  139.5301  166.3226 H       1  UNL1        0.2103
@<TRIPOS>BOND
     1    24    25    1
     2    25    23    1
     3    23    17    1
     4    17    18   ar
     5    18    19   ar
     6    19    20   ar
     7    20     1    1
     8     1     2   ar
     9     2     3   ar
    10     3     4   ar
    11     4     5   ar
    12     5     6   ar
    13     6     7    1
    14     4     8   ar
    15     8     9   ar
    16     9    10   ar
    17    10    11   ar
    18    11    12   ar
    19    26    12    1
    20    26    27    1
    21    27    28    1
    22    28    29    1
    23    28    30    1
    24    12    13   ar
    25    13    14    2
    26    13    15   ar
    27    15    16    1
    28    20    21   ar
    29    21    22   ar
    30    22    17   ar
    31     6     1   ar
    32    15    10   ar
    33    11     3   ar
    34    30    26    1
    35    29    31    1
@<TRIPOS>MOLECULE
*****
 31 35 0 0 0
SMALL
GASTEIGER

@<TRIPOS>ATOM
      1 C         143.3111  141.3513  164.4135 C.ar    1  UNL1        0.0291
      2 C         142.5601  142.3112  163.5392 C.ar    1  UNL1        0.0053
      3 C         142.9305  142.4553  162.0928 C.ar    1  UNL1        0.0352
      4 C         144.0519  141.6396  161.5208 C.ar    1  UNL1        0.0850
      5 C         144.8029  140.6798  162.3952 C.ar    1  UNL1        0.0488
      6 C         144.4325  140.5356  163.8416 C.ar    1  UNL1        0.1416
      7 F         145.1835  139.5757  164.7160 F       1  UNL1       -0.2041
      8 N         144.4222  141.7838  160.0744 N.ar    1  UNL1       -0.2422
      9 C         143.6712  142.7437  159.2000 C.ar    1  UNL1        0.1175
     10 C         142.5498  143.5594  159.7720 C.ar    1  UNL1        0.0989
     11 C         142.1795  143.4153  161.2183 C.ar    1  UNL1        0.0826
     12 N         141.0369  144.3456  161.4993 N.ar    1  UNL1       -0.2815
     13 C         140.7011  145.0648  160.2265 C.ar    1  UNL1        0.3316
     14 O         139.6201  146.0900  160.0519 O.2     1  UNL1       -0.2463
     15 N         141.6362  144.5789  159.1590 N.ar    1  UNL1       -0.2765
     16 C         141.6543  145.0329  157.7293 C.3     1  UNL1        0.1352
     17 C         142.2001  140.9186  168.7528 C.ar    1  UNL1        0.0888
     18 C         142.7999  142.2008  168.2564 C.ar    1  UNL1        0.0173
     19 C         143.1702  142.3450  166.8100 C.ar    1  UNL1        0.0029
     20 C         142.9408  141.2071  165.8600 C.ar    1  UNL1        0.0213
     21 C         142.3411  139.9249  166.3564 C.ar    1  UNL1        0.0986
     22 N         141.9707  139.7807  167.8027 N.ar    1  UNL1       -0.2457
     23 C         141.8298  140.7744  170.1991 C.3     1  UNL1        0.1876
     24 C         139.2422  140.7902  169.9659 C.3     1  UNL1        0.1747
     25 O         140.4851  141.2348  170.6785 O.3     1  UNL1       -0.3447
     26 C         140.3507  144.5253  162.8209 C.3     1  UNL1        0.0947
     27 C         138.9264  144.4890  163.2901 C.3     1  UNL1        0.0521
     28 C         139.3802  144.7794  164.6901 C.3     1  UNL1        0.1143
     29 O         138.6939  144.9590  166.0117 O.3     1  UNL1       -0.3843
     30 C         140.8045  144.8157  164.2209 C.3     1  UNL1        0.0521
     31 H         137.7364  144.8569  165.8953 H       1  UNL1        0.2103
@<TRIPOS>BOND
     1    24    25    1
     2    25    23    1
     3    23    17    1
     4    17    18   ar
     5    18    19   ar
     6    19    20   ar
     7    20     1    1
     8     1     2   ar
     9     2     3   ar
    10     3     4   ar
    11     4     5   ar
    12     5     6   ar
    13     6     7    1
    14     4     8   ar
    15     8     9   ar
    16     9    10   ar
    17    10    11   ar
    18    11    12   ar
    19    26    12    1
    20    26    27    1
    21    27    28    1
    22    28    29    1
    23    28    30    1
    24    12    13   ar
    25    13    14    2
    26    13    15   ar
    27    15    16    1
    28    20    21   ar
    29    21    22   ar
    30    22    17   ar
    31     6     1   ar
    32    15    10   ar
    33    11     3   ar
    34    30    26    1
    35    29    31    1
@<TRIPOS>MOLECULE
*****
 31 35 0 0 0
SMALL
GASTEIGER

@<TRIPOS>ATOM
      1 C         140.4976  139.9520  164.9994 C.ar    1  UNL1        0.0291
      2 C         141.2599  139.8855  163.7092 C.ar    1  UNL1        0.0053
      3 C         140.6118  139.3123  162.4839 C.ar    1  UNL1        0.0352
      4 C         139.2015  138.8056  162.5487 C.ar    1  UNL1        0.0850
      5 C         138.4392  138.8720  163.8389 C.ar    1  UNL1        0.0488
      6 C         139.0873  139.4452  165.0642 C.ar    1  UNL1        0.1416
      7 F         138.3250  139.5117  166.3544 F       1  UNL1       -0.2041
      8 N         138.5535  138.2323  161.3233 N.ar    1  UNL1       -0.2422
      9 C         139.3158  138.1659  160.0332 C.ar    1  UNL1        0.1175
     10 C         140.7261  138.6726  159.9684 C.ar    1  UNL1        0.0989
     11 C         141.3741  139.2459  161.1937 C.ar    1  UNL1        0.0826
     12 N         142.7673  139.6648  160.8284 N.ar    1  UNL1       -0.2815
     13 C         142.9803  139.3505  159.3773 C.ar    1  UNL1        0.3316
     14 O         144.2347  139.6047  158.5950 O.2     1  UNL1       -0.2463
     15 N         141.7188  138.7373  158.8458 N.ar    1  UNL1       -0.2765
     16 C         141.4901  138.2707  157.4386 C.3     1  UNL1        0.1352
     17 C         142.4416  141.6716  168.6755 C.ar    1  UNL1        0.0888
     18 C         141.5934  142.5437  167.7981 C.ar    1  UNL1        0.0173
     19 C         140.9454  141.9705  166.5727 C.ar    1  UNL1        0.0029
     20 C         141.1456  140.5252  166.2248 C.ar    1  UNL1        0.0213
     21 C         141.9938  139.6531  167.1022 C.ar    1  UNL1        0.0986
     22 N         142.6419  140.2263  168.3276 N.ar    1  UNL1       -0.2457
     23 C         143.0896  142.2448  169.9009 C.3     1  UNL1        0.1876
     24 C         140.9405  141.8929  171.3177 C.3     1  UNL1        0.1747
     25 O         142.2570  142.5791  171.1028 O.3     1  UNL1       -0.3447
     26 C         143.7712  140.2885  161.7521 C.3     1  UNL1        0.0947
     27 C         144.5721  139.8105  162.9268 C.3     1  UNL1        0.0521
     28 C         145.1910  141.1707  163.0583 C.3     1  UNL1        0.1143
     29 O         146.1949  141.7944  163.9819 O.3     1  UNL1       -0.3843
     30 C         144.3900  141.6487  161.8835 C.3     1  UNL1        0.0521
     31 H         146.4898  141.1364  164.6307 H       1  UNL1        0.2103
@<TRIPOS>BOND
     1    24    25    1
     2    25    23    1
     3    23    17    1
     4    17    18   ar
     5    18    19   ar
     6    19    20   ar
     7    20     1    1
     8     1     2   ar
     9     2     3   ar
    10     3     4   ar
    11     4     5   ar
    12     5     6   ar
    13     6     7    1
    14     4     8   ar
    15     8     9   ar
    16     9    10   ar
    17    10    11   ar
    18    11    12   ar
    19    26    12    1
    20    26    27    1
    21    27    28    1
    22    28    29    1
    23    28    30    1
    24    12    13   ar
    25    13    14    2
    26    13    15   ar
    27    15    16    1
    28    20    21   ar
    29    21    22   ar
    30    22    17   ar
    31     6     1   ar
    32    15    10   ar
    33    11     3   ar
    34    30    26    1
    35    29    31    1
