@<TRIPOS>MOLECULE
*****
 34 37 0 0 0
SMALL
GASTEIGER

@<TRIPOS>ATOM
      1 C         140.7326  139.7295  163.5211 C.ar    1  UNL1        0.0685
      2 C         140.0845  138.6546  162.6997 C.ar    1  UNL1        0.0885
      3 C         139.0992  137.7179  163.3334 C.ar    1  UNL1        0.1263
      4 N         138.7619  137.8560  164.7885 N.ar    1  UNL1       -0.1633
      5 N         139.4100  138.9308  165.6098 N.ar    1  UNL1       -0.2270
      6 C         139.2762  139.3073  167.0556 C.ar    1  UNL1        0.1004
      7 C         140.1788  140.4768  167.3155 C.ar    1  UNL1        0.0209
      8 C         140.8705  140.8231  166.0303 C.ar    1  UNL1        0.0220
      9 C         140.3953  139.8676  164.9761 C.ar    1  UNL1        0.0961
     10 C         140.3583  141.1771  168.6298 C.ar    1  UNL1        0.0069
     11 C         140.5897  140.3798  169.8790 C.ar    1  UNL1        0.0209
     12 C         140.7692  141.0802  171.1933 C.ar    1  UNL1        0.1013
     13 N         140.7173  142.5778  171.2583 N.ar    1  UNL1       -0.2165
     14 C         140.4858  143.3752  170.0091 C.ar    1  UNL1        0.2223
     15 F         140.4339  144.8729  170.0740 F       1  UNL1       -0.1832
     16 C         140.3064  142.6748  168.6948 C.ar    1  UNL1        0.0497
     17 C         140.4218  138.5166  161.2446 C.2     1  UNL1        0.2456
     18 N         139.3274  138.5068  160.2188 N.am    1  UNL1       -0.3252
     19 O         141.8532  138.3883  160.8154 O.2     1  UNL1       -0.2703
     20 H         138.3879  138.5910  160.5005 H       1  UNL1        0.1453
     21 H         139.5487  138.4162  159.2638 H       1  UNL1        0.1453
     22 N         141.7179  140.6662  162.8874 N.pl3   1  UNL1       -0.3327
     23 H         142.5349  140.3114  162.4680 H       1  UNL1        0.1468
     24 C         143.3567  142.0511  163.5387 C.3     1  UNL1        0.0029
     25 C         142.4345  143.2089  163.2958 C.3     1  UNL1        0.0282
     26 C         143.6034  144.0320  163.7499 C.3     1  UNL1        0.0029
     27 C         141.4584  142.1437  162.8926 C.3     1  UNL1        0.0702
     28 C         140.1773  142.8153  162.4954 C.3     1  UNL1        0.0208
     29 C         140.3617  144.2955  162.6532 C.3     1  UNL1        0.0160
     30 C         141.7567  144.5387  163.1479 C.3     1  UNL1        0.0404
     31 C         143.0673  145.0838  163.6329 C.3     1  UNL1        0.0156
     32 N         141.3528  145.9826  163.1014 N.3     1  UNL1       -0.3231
     33 H         140.3892  146.0557  162.7751 H       1  UNL1        0.1188
     34 H         141.9673  146.4871  162.4625 H       1  UNL1        0.1188
@<TRIPOS>BOND
     1    24    25    1
     2    25    26    1
     3    25    27    1
     4    27    22    1
     5    22     1    1
     6     1     2   ar
     7     2    17    1
     8    17    18   am
     9    17    19    2
    10     2     3   ar
    11     3     4   ar
    12     4     5   ar
    13     5     6   ar
    14     6     7   ar
    15     7    10    1
    16    10    11   ar
    17    11    12   ar
    18    12    13   ar
    19    13    14   ar
    20    14    15    1
    21    14    16   ar
    22     7     8   ar
    23     8     9   ar
    24    27    28    1
    25    28    29    1
    26    29    30    1
    27    30    31    1
    28    30    32    1
    29    30    25    1
    30     9     1   ar
    31     9     5   ar
    32    16    10   ar
    33    22    23    1
    34    18    20    1
    35    18    21    1
    36    32    33    1
    37    32    34    1
@<TRIPOS>MOLECULE
*****
 34 37 0 0 0
SMALL
GASTEIGER

@<TRIPOS>ATOM
      1 C         141.1536  140.5602  167.4991 C.ar    1  UNL1        0.0685
      2 C         141.3985  140.1235  168.9131 C.ar    1  UNL1        0.0885
      3 C         142.4859  139.1356  169.2153 C.ar    1  UNL1        0.1263
      4 N         143.3285  138.5842  168.1035 N.ar    1  UNL1       -0.1633
      5 N         143.0836  139.0208  166.6895 N.ar    1  UNL1       -0.2270
      6 C         143.7478  138.6525  165.3960 C.ar    1  UNL1        0.1004
      7 C         143.0709  139.4129  164.2944 C.ar    1  UNL1        0.0209
      8 C         141.9883  140.2512  164.9070 C.ar    1  UNL1        0.0220
      9 C         141.9961  140.0089  166.3873 C.ar    1  UNL1        0.0961
     10 C         143.4160  139.3467  162.8361 C.ar    1  UNL1        0.0069
     11 C         143.3797  138.0315  162.1158 C.ar    1  UNL1        0.0209
     12 C         143.7248  137.9654  160.6575 C.ar    1  UNL1        0.1013
     13 N         144.1061  139.2144  159.9195 N.ar    1  UNL1       -0.2165
     14 C         144.1424  140.5296  160.6399 C.ar    1  UNL1        0.2223
     15 F         144.5237  141.7787  159.9020 F       1  UNL1       -0.1832
     16 C         143.7973  140.5957  162.0982 C.ar    1  UNL1        0.0497
     17 C         140.5559  140.6749  170.0249 C.2     1  UNL1        0.2456
     18 N         139.9933  139.7543  171.0669 N.am    1  UNL1       -0.3252
     19 O         140.2759  142.1468  170.0946 O.2     1  UNL1       -0.2703
     20 H         140.1771  138.7882  171.0212 H       1  UNL1        0.1453
     21 H         139.4403  140.1161  171.7966 H       1  UNL1        0.1453
     22 N         140.0661  141.5482  167.1969 N.pl3   1  UNL1       -0.3327
     23 H         139.9474  142.3401  167.7697 H       1  UNL1        0.1468
     24 C         139.5957  143.2820  165.8552 C.3     1  UNL1        0.0029
     25 C         138.7404  142.3703  165.0263 C.3     1  UNL1        0.0282
     26 C         138.5001  143.6015  164.2039 C.3     1  UNL1        0.0029
     27 C         139.1595  141.3297  166.0220 C.3     1  UNL1        0.0702
     28 C         138.5130  140.0322  165.6365 C.3     1  UNL1        0.0208
     29 C         137.6942  140.2710  164.4026 C.3     1  UNL1        0.0160
     30 C         137.8348  141.7160  164.0255 C.3     1  UNL1        0.0404
     31 C         137.7838  143.0839  163.4123 C.3     1  UNL1        0.0156
     32 N         136.9185  141.3476  162.8964 N.3     1  UNL1       -0.3231
     33 H         136.6819  140.3574  162.9597 H       1  UNL1        0.1188
     34 H         137.3841  141.5298  162.0074 H       1  UNL1        0.1188
@<TRIPOS>BOND
     1    24    25    1
     2    25    26    1
     3    25    27    1
     4    27    22    1
     5    22     1    1
     6     1     2   ar
     7     2    17    1
     8    17    18   am
     9    17    19    2
    10     2     3   ar
    11     3     4   ar
    12     4     5   ar
    13     5     6   ar
    14     6     7   ar
    15     7    10    1
    16    10    11   ar
    17    11    12   ar
    18    12    13   ar
    19    13    14   ar
    20    14    15    1
    21    14    16   ar
    22     7     8   ar
    23     8     9   ar
    24    27    28    1
    25    28    29    1
    26    29    30    1
    27    30    31    1
    28    30    32    1
    29    30    25    1
    30     9     1   ar
    31     9     5   ar
    32    16    10   ar
    33    22    23    1
    34    18    20    1
    35    18    21    1
    36    32    33    1
    37    32    34    1
@<TRIPOS>MOLECULE
*****
 34 37 0 0 0
SMALL
GASTEIGER

@<TRIPOS>ATOM
      1 C         139.5067  140.2478  163.4275 C.ar    1  UNL1        0.0685
      2 C         139.4463  138.9244  162.7241 C.ar    1  UNL1        0.0885
      3 C         140.0720  137.7133  163.3498 C.ar    1  UNL1        0.1263
      4 N         140.7581  137.8255  164.6790 N.ar    1  UNL1       -0.1633
      5 N         140.8186  139.1489  165.3824 N.ar    1  UNL1       -0.2270
      6 C         141.4219  139.5630  166.6918 C.ar    1  UNL1        0.1004
      7 C         141.1690  141.0301  166.8753 C.ar    1  UNL1        0.0209
      8 C         140.4095  141.5227  165.6793 C.ar    1  UNL1        0.0220
      9 C         140.1929  140.3601  164.7566 C.ar    1  UNL1        0.0961
     10 C         141.6001  141.8590  168.0488 C.ar    1  UNL1        0.0069
     11 C         140.6076  142.7368  168.7520 C.ar    1  UNL1        0.0209
     12 C         141.0388  143.5658  169.9255 C.ar    1  UNL1        0.1013
     13 N         142.4623  143.5169  170.3958 N.ar    1  UNL1       -0.2165
     14 C         143.4547  142.6391  169.6926 C.ar    1  UNL1        0.2223
     15 F         144.8782  142.5901  170.1629 F       1  UNL1       -0.1832
     16 C         143.0236  141.8101  168.5191 C.ar    1  UNL1        0.0497
     17 C         138.7601  138.8122  161.3949 C.2     1  UNL1        0.2456
     18 N         139.5133  138.3002  160.2030 N.am    1  UNL1       -0.3252
     19 O         137.3210  139.2118  161.2577 O.2     1  UNL1       -0.2703
     20 H         140.4579  138.0379  160.2931 H       1  UNL1        0.1453
     21 H         139.0630  138.2266  159.3306 H       1  UNL1        0.1453
     22 N         138.8810  141.4590  162.8018 N.pl3   1  UNL1       -0.3327
     23 H         137.9072  141.5933  162.8553 H       1  UNL1        0.1468
     24 C         138.4588  143.6410  163.0989 C.3     1  UNL1        0.0029
     25 C         139.5998  143.9569  162.1777 C.3     1  UNL1        0.0282
     26 C         139.2219  145.3820  162.4537 C.3     1  UNL1        0.0029
     27 C         139.7391  142.4657  162.0944 C.3     1  UNL1        0.0702
     28 C         140.8872  142.1579  161.1794 C.3     1  UNL1        0.0208
     29 C         141.4574  143.4589  160.6973 C.3     1  UNL1        0.0160
     30 C         140.6617  144.5707  161.3144 C.3     1  UNL1        0.0404
     31 C         140.0618  145.8675  161.7708 C.3     1  UNL1        0.0156
     32 N         141.5982  145.4556  160.5464 N.3     1  UNL1       -0.3231
     33 H         142.2603  144.8798  160.0263 H       1  UNL1        0.1188
     34 H         142.1066  146.0567  161.1949 H       1  UNL1        0.1188
@<TRIPOS>BOND
     1    24    25    1
     2    25    26    1
     3    25    27    1
     4    27    22    1
     5    22     1    1
     6     1     2   ar
     7     2    17    1
     8    17    18   am
     9    17    19    2
    10     2     3   ar
    11     3     4   ar
    12     4     5   ar
    13     5     6   ar
    14     6     7   ar
    15     7    10    1
    16    10    11   ar
    17    11    12   ar
    18    12    13   ar
    19    13    14   ar
    20    14    15    1
    21    14    16   ar
    22     7     8   ar
    23     8     9   ar
    24    27    28    1
    25    28    29    1
    26    29    30    1
    27    30    31    1
    28    30    32    1
    29    30    25    1
    30     9     1   ar
    31     9     5   ar
    32    16    10   ar
    33    22    23    1
    34    18    20    1
    35    18    21    1
    36    32    33    1
    37    32    34    1
@<TRIPOS>MOLECULE
*****
 34 37 0 0 0
SMALL
GASTEIGER

@<TRIPOS>ATOM
      1 C         139.9597  139.7566  163.7456 C.ar    1  UNL1        0.0685
      2 C         140.1233  138.4313  163.0624 C.ar    1  UNL1        0.0885
      3 C         140.9769  137.3668  163.6853 C.ar    1  UNL1        0.1263
      4 N         141.6670  137.6275  164.9914 N.ar    1  UNL1       -0.1633
      5 N         141.5035  138.9528  165.6745 N.ar    1  UNL1       -0.2270
      6 C         142.0564  139.4947  166.9593 C.ar    1  UNL1        0.1004
      7 C         141.5444  140.8942  167.1304 C.ar    1  UNL1        0.0209
      8 C         140.6751  141.2172  165.9515 C.ar    1  UNL1        0.0220
      9 C         140.6498  140.0174  165.0517 C.ar    1  UNL1        0.0961
     10 C         141.8484  141.8099  168.2789 C.ar    1  UNL1        0.0069
     11 C         143.1644  141.7080  168.9914 C.ar    1  UNL1        0.0209
     12 C         143.4683  142.6238  170.1399 C.ar    1  UNL1        0.1013
     13 N         142.4563  143.6415  170.5759 N.ar    1  UNL1       -0.2165
     14 C         141.1403  143.7434  169.8634 C.ar    1  UNL1        0.2223
     15 F         140.1282  144.7610  170.2993 F       1  UNL1       -0.1832
     16 C         140.8364  142.8276  168.7149 C.ar    1  UNL1        0.0497
     17 C         139.4331  138.1706  161.7563 C.2     1  UNL1        0.2456
     18 N         138.0245  137.6553  161.7422 N.am    1  UNL1       -0.3252
     19 O         140.1515  138.4252  160.4645 O.2     1  UNL1       -0.2703
     20 H         137.5530  137.4881  162.5902 H       1  UNL1        0.1453
     21 H         137.5715  137.4841  160.8851 H       1  UNL1        0.1453
     22 N         139.1060  140.8212  163.1227 N.pl3   1  UNL1       -0.3327
     23 H         138.1266  140.7224  163.1109 H       1  UNL1        0.1468
     24 C         138.1791  142.8291  163.4925 C.3     1  UNL1        0.0029
     25 C         139.2623  143.4494  162.6607 C.3     1  UNL1        0.0282
     26 C         138.5535  144.7328  162.9775 C.3     1  UNL1        0.0029
     27 C         139.7447  142.0363  162.5179 C.3     1  UNL1        0.0702
     28 C         140.9779  142.0515  161.6641 C.3     1  UNL1        0.0208
     29 C         141.2577  143.4740  161.2793 C.3     1  UNL1        0.0160
     30 C         140.1974  144.3379  161.8952 C.3     1  UNL1        0.0404
     31 C         139.2930  145.4356  162.3720 C.3     1  UNL1        0.0156
     32 N         140.9434  145.4560  161.2294 N.3     1  UNL1       -0.3231
     33 H         141.7457  145.0772  160.7263 H       1  UNL1        0.1188
     34 H         141.2663  146.1173  161.9356 H       1  UNL1        0.1188
@<TRIPOS>BOND
     1    24    25    1
     2    25    26    1
     3    25    27    1
     4    27    22    1
     5    22     1    1
     6     1     2   ar
     7     2    17    1
     8    17    18   am
     9    17    19    2
    10     2     3   ar
    11     3     4   ar
    12     4     5   ar
    13     5     6   ar
    14     6     7   ar
    15     7    10    1
    16    10    11   ar
    17    11    12   ar
    18    12    13   ar
    19    13    14   ar
    20    14    15    1
    21    14    16   ar
    22     7     8   ar
    23     8     9   ar
    24    27    28    1
    25    28    29    1
    26    29    30    1
    27    30    31    1
    28    30    32    1
    29    30    25    1
    30     9     1   ar
    31     9     5   ar
    32    16    10   ar
    33    22    23    1
    34    18    20    1
    35    18    21    1
    36    32    33    1
    37    32    34    1
@<TRIPOS>MOLECULE
*****
 34 37 0 0 0
SMALL
GASTEIGER

@<TRIPOS>ATOM
      1 C         140.7018  140.1226  167.4347 C.ar    1  UNL1        0.0685
      2 C         141.0268  139.8822  168.8791 C.ar    1  UNL1        0.0885
      3 C         142.3306  139.2453  169.2586 C.ar    1  UNL1        0.1263
      4 N         143.3097  138.8486  168.1936 N.ar    1  UNL1       -0.1633
      5 N         142.9847  139.0890  166.7491 N.ar    1  UNL1       -0.2270
      6 C         143.7468  138.8063  165.4884 C.ar    1  UNL1        0.1004
      7 C         142.9138  139.2686  164.3298 C.ar    1  UNL1        0.0209
      8 C         141.6370  139.8370  164.8744 C.ar    1  UNL1        0.0220
      9 C         141.6808  139.7260  166.3696 C.ar    1  UNL1        0.0961
     10 C         143.2914  139.1784  162.8809 C.ar    1  UNL1        0.0069
     11 C         143.9237  140.3536  162.1960 C.ar    1  UNL1        0.0209
     12 C         144.3013  140.2633  160.7471 C.ar    1  UNL1        0.1013
     13 N         144.0466  138.9979  159.9831 N.ar    1  UNL1       -0.2165
     14 C         143.4143  137.8227  160.6679 C.ar    1  UNL1        0.2223
     15 F         143.1595  136.5572  159.9040 F       1  UNL1       -0.1832
     16 C         143.0367  137.9130  162.1169 C.ar    1  UNL1        0.0497
     17 C         140.0477  140.2789  169.9442 C.2     1  UNL1        0.2456
     18 N         139.8141  139.3786  171.1210 N.am    1  UNL1       -0.3252
     19 O         139.3024  141.5757  169.8324 O.2     1  UNL1       -0.2703
     20 H         140.3034  138.5274  171.1943 H       1  UNL1        0.1453
     21 H         139.1716  139.6389  171.8200 H       1  UNL1        0.1453
     22 N         139.3979  140.7596  167.0552 N.pl3   1  UNL1       -0.3327
     23 H         138.5554  140.4208  167.4356 H       1  UNL1        0.1468
     24 C         138.1069  140.6245  165.2269 C.3     1  UNL1        0.0029
     25 C         138.5768  141.9927  164.8302 C.3     1  UNL1        0.0282
     26 C         137.6778  141.7865  163.6473 C.3     1  UNL1        0.0029
     27 C         139.3775  141.9128  166.0960 C.3     1  UNL1        0.0702
     28 C         140.1544  143.1884  166.2344 C.3     1  UNL1        0.0208
     29 C         139.8338  144.0567  165.0541 C.3     1  UNL1        0.0160
     30 C         138.8588  143.3177  164.1862 C.3     1  UNL1        0.0404
     31 C         137.9008  142.8345  163.1379 C.3     1  UNL1        0.0156
     32 N         138.9405  144.5417  163.3231 N.3     1  UNL1       -0.3231
     33 H         139.5820  145.2131  163.7451 H       1  UNL1        0.1188
     34 H         138.0147  144.9618  163.2403 H       1  UNL1        0.1188
@<TRIPOS>BOND
     1    24    25    1
     2    25    26    1
     3    25    27    1
     4    27    22    1
     5    22     1    1
     6     1     2   ar
     7     2    17    1
     8    17    18   am
     9    17    19    2
    10     2     3   ar
    11     3     4   ar
    12     4     5   ar
    13     5     6   ar
    14     6     7   ar
    15     7    10    1
    16    10    11   ar
    17    11    12   ar
    18    12    13   ar
    19    13    14   ar
    20    14    15    1
    21    14    16   ar
    22     7     8   ar
    23     8     9   ar
    24    27    28    1
    25    28    29    1
    26    29    30    1
    27    30    31    1
    28    30    32    1
    29    30    25    1
    30     9     1   ar
    31     9     5   ar
    32    16    10   ar
    33    22    23    1
    34    18    20    1
    35    18    21    1
    36    32    33    1
    37    32    34    1
@<TRIPOS>MOLECULE
*****
 34 37 0 0 0
SMALL
GASTEIGER

@<TRIPOS>ATOM
      1 C         143.1896  141.6348  163.7678 C.ar    1  UNL1        0.0685
      2 C         144.1135  140.9360  162.8150 C.ar    1  UNL1        0.0885
      3 C         144.7508  139.6357  163.2060 C.ar    1  UNL1        0.1263
      4 N         144.4641  139.0341  164.5500 N.ar    1  UNL1       -0.1633
      5 N         143.5401  139.7330  165.5027 N.ar    1  UNL1       -0.2270
      6 C         143.0723  139.3846  166.8847 C.ar    1  UNL1        0.1004
      7 C         142.1459  140.4697  167.3477 C.ar    1  UNL1        0.0209
      8 C         142.0412  141.4887  166.2519 C.ar    1  UNL1        0.0220
      9 C         142.9029  141.0334  165.1117 C.ar    1  UNL1        0.0961
     10 C         141.4469  140.5259  168.6737 C.ar    1  UNL1        0.0069
     11 C         142.2162  140.8761  169.9128 C.ar    1  UNL1        0.0209
     12 C         141.5171  140.9324  171.2388 C.ar    1  UNL1        0.1013
     13 N         140.0488  140.6384  171.3256 N.ar    1  UNL1       -0.2165
     14 C         139.2795  140.2882  170.0865 C.ar    1  UNL1        0.2223
     15 F         137.8112  139.9942  170.1733 F       1  UNL1       -0.1832
     16 C         139.9786  140.2319  168.7605 C.ar    1  UNL1        0.0497
     17 C         144.4002  141.5375  161.4711 C.2     1  UNL1        0.2456
     18 N         145.3302  142.7089  161.3567 N.am    1  UNL1       -0.3252
     19 O         143.7570  140.9678  160.2417 O.2     1  UNL1       -0.2703
     20 H         145.7524  143.0828  162.1637 H       1  UNL1        0.1453
     21 H         145.5184  143.1037  160.4747 H       1  UNL1        0.1453
     22 N         142.5523  142.9352  163.3767 N.pl3   1  UNL1       -0.3327
     23 H         143.0436  143.7799  163.4967 H       1  UNL1        0.1468
     24 C         141.0403  144.3536  164.2309 C.3     1  UNL1        0.0029
     25 C         140.0356  143.8271  163.2494 C.3     1  UNL1        0.0282
     26 C         139.1149  144.8156  163.9012 C.3     1  UNL1        0.0029
     27 C         141.1664  142.9486  162.8027 C.3     1  UNL1        0.0702
     28 C         140.6682  142.0859  161.6814 C.3     1  UNL1        0.0208
     29 C         139.2295  142.4311  161.4350 C.3     1  UNL1        0.0160
     30 C         138.8385  143.5073  162.4041 C.3     1  UNL1        0.0404
     31 C         138.1680  144.5627  163.2326 C.3     1  UNL1        0.0156
     32 N         137.5012  143.4081  161.7320 N.3     1  UNL1       -0.3231
     33 H         137.5402  142.6986  161.0003 H       1  UNL1        0.1188
     34 H         137.2604  144.3093  161.3193 H       1  UNL1        0.1188
@<TRIPOS>BOND
     1    24    25    1
     2    25    26    1
     3    25    27    1
     4    27    22    1
     5    22     1    1
     6     1     2   ar
     7     2    17    1
     8    17    18   am
     9    17    19    2
    10     2     3   ar
    11     3     4   ar
    12     4     5   ar
    13     5     6   ar
    14     6     7   ar
    15     7    10    1
    16    10    11   ar
    17    11    12   ar
    18    12    13   ar
    19    13    14   ar
    20    14    15    1
    21    14    16   ar
    22     7     8   ar
    23     8     9   ar
    24    27    28    1
    25    28    29    1
    26    29    30    1
    27    30    31    1
    28    30    32    1
    29    30    25    1
    30     9     1   ar
    31     9     5   ar
    32    16    10   ar
    33    22    23    1
    34    18    20    1
    35    18    21    1
    36    32    33    1
    37    32    34    1
@<TRIPOS>MOLECULE
*****
 34 37 0 0 0
SMALL
GASTEIGER

@<TRIPOS>ATOM
      1 C         139.7955  140.4308  163.3203 C.ar    1  UNL1        0.0685
      2 C         139.2194  139.3018  162.5183 C.ar    1  UNL1        0.0885
      3 C         138.6090  138.1220  163.2149 C.ar    1  UNL1        0.1263
      4 N         138.5747  138.0711  164.7137 N.ar    1  UNL1       -0.1633
      5 N         139.1507  139.2002  165.5158 N.ar    1  UNL1       -0.2270
      6 C         139.2595  139.4277  166.9944 C.ar    1  UNL1        0.1004
      7 C         139.9372  140.7481  167.2116 C.ar    1  UNL1        0.0209
      8 C         140.2472  141.3367  165.8672 C.ar    1  UNL1        0.0220
      9 C         139.7611  140.3801  164.8191 C.ar    1  UNL1        0.0961
     10 C         140.2500  141.3707  168.5400 C.ar    1  UNL1        0.0069
     11 C         140.5788  140.5010  169.7170 C.ar    1  UNL1        0.0209
     12 C         140.8915  141.1237  171.0454 C.ar    1  UNL1        0.1013
     13 N         140.8755  142.6159  171.1967 N.ar    1  UNL1       -0.2165
     14 C         140.5467  143.4856  170.0196 C.ar    1  UNL1        0.2223
     15 F         140.5307  144.9778  170.1708 F       1  UNL1       -0.1832
     16 C         140.2340  142.8629  168.6913 C.ar    1  UNL1        0.0497
     17 C         139.2538  139.3526  161.0195 C.2     1  UNL1        0.2456
     18 N         139.8481  138.2145  160.2439 N.am    1  UNL1       -0.3252
     19 O         138.6939  140.5415  160.2963 O.2     1  UNL1       -0.2703
     20 H         140.2155  137.4341  160.7186 H       1  UNL1        0.1453
     21 H         139.8706  138.2478  159.2603 H       1  UNL1        0.1453
     22 N         140.4059  141.6107  162.6236 N.pl3   1  UNL1       -0.3327
     23 H         139.8326  142.3447  162.3046 H       1  UNL1        0.1468
     24 C         141.4567  143.5736  162.8891 C.3     1  UNL1        0.0029
     25 C         142.7495  142.8940  162.5473 C.3     1  UNL1        0.0282
     26 C         143.3389  144.2579  162.7530 C.3     1  UNL1        0.0029
     27 C         141.8899  141.6722  162.4131 C.3     1  UNL1        0.0702
     28 C         142.7746  140.5226  162.0314 C.3     1  UNL1        0.0208
     29 C         144.1810  141.0339  161.9297 C.3     1  UNL1        0.0160
     30 C         144.1655  142.4996  162.2486 C.3     1  UNL1        0.0404
     31 C         144.4589  143.9460  162.5167 C.3     1  UNL1        0.0156
     32 N         145.6429  142.4075  162.0059 N.3     1  UNL1       -0.3231
     33 H         145.8882  141.4480  161.7616 H       1  UNL1        0.1188
     34 H         146.1440  142.6820  162.8508 H       1  UNL1        0.1188
@<TRIPOS>BOND
     1    24    25    1
     2    25    26    1
     3    25    27    1
     4    27    22    1
     5    22     1    1
     6     1     2   ar
     7     2    17    1
     8    17    18   am
     9    17    19    2
    10     2     3   ar
    11     3     4   ar
    12     4     5   ar
    13     5     6   ar
    14     6     7   ar
    15     7    10    1
    16    10    11   ar
    17    11    12   ar
    18    12    13   ar
    19    13    14   ar
    20    14    15    1
    21    14    16   ar
    22     7     8   ar
    23     8     9   ar
    24    27    28    1
    25    28    29    1
    26    29    30    1
    27    30    31    1
    28    30    32    1
    29    30    25    1
    30     9     1   ar
    31     9     5   ar
    32    16    10   ar
    33    22    23    1
    34    18    20    1
    35    18    21    1
    36    32    33    1
    37    32    34    1
@<TRIPOS>MOLECULE
*****
 34 37 0 0 0
SMALL
GASTEIGER

@<TRIPOS>ATOM
      1 C         143.0047  140.8979  161.9040 C.ar    1  UNL1        0.0685
      2 C         143.6476  140.1325  160.7856 C.ar    1  UNL1        0.0885
      3 C         144.0439  138.7001  160.9878 C.ar    1  UNL1        0.1263
      4 N         143.7972  138.0329  162.3085 N.ar    1  UNL1       -0.1633
      5 N         143.1543  138.7983  163.4269 N.ar    1  UNL1       -0.2270
      6 C         142.7883  138.4095  164.8287 C.ar    1  UNL1        0.1004
      7 C         142.1659  139.6018  165.4927 C.ar    1  UNL1        0.0209
      8 C         142.1471  140.7274  164.5014 C.ar    1  UNL1        0.0220
      9 C         142.7580  140.2308  163.2246 C.ar    1  UNL1        0.0961
     10 C         141.6523  139.6586  166.9009 C.ar    1  UNL1        0.0069
     11 C         140.2089  139.9734  167.1607 C.ar    1  UNL1        0.0209
     12 C         139.6954  140.0302  168.5690 C.ar    1  UNL1        0.1013
     13 N         140.6252  139.7720  169.7174 N.ar    1  UNL1       -0.2165
     14 C         142.0686  139.4572  169.4576 C.ar    1  UNL1        0.2223
     15 F         142.9984  139.1991  170.6059 F       1  UNL1       -0.1832
     16 C         142.5821  139.4004  168.0493 C.ar    1  UNL1        0.0497
     17 C         143.8942  140.7997  159.4649 C.2     1  UNL1        0.2456
     18 N         143.8194  140.0025  158.1965 N.am    1  UNL1       -0.3252
     19 O         144.2155  142.2638  159.4127 O.2     1  UNL1       -0.2703
     20 H         143.6085  139.0415  158.2308 H       1  UNL1        0.1453
     21 H         143.9813  140.4404  157.3297 H       1  UNL1        0.1453
     22 N         142.6084  142.3304  161.7017 N.pl3   1  UNL1       -0.3327
     23 H         143.2969  143.0111  161.5231 H       1  UNL1        0.1468
     24 C         142.0280  144.0946  162.9581 C.3     1  UNL1        0.0029
     25 C         140.5996  143.8721  162.5580 C.3     1  UNL1        0.0282
     26 C         140.3348  145.0650  163.4280 C.3     1  UNL1        0.0029
     27 C         141.1630  142.7258  161.7716 C.3     1  UNL1        0.0702
     28 C         140.0275  142.0442  161.0674 C.3     1  UNL1        0.0208
     29 C         138.7623  142.7694  161.4185 C.3     1  UNL1        0.0160
     30 C         139.1159  143.8991  162.3397 C.3     1  UNL1        0.0404
     31 C         139.1613  145.0863  163.2554 C.3     1  UNL1        0.0156
     32 N         137.6416  144.1742  162.3129 N.3     1  UNL1       -0.3231
     33 H         137.1788  143.4897  161.7148 H       1  UNL1        0.1188
     34 H         137.4773  145.1119  161.9468 H       1  UNL1        0.1188
@<TRIPOS>BOND
     1    24    25    1
     2    25    26    1
     3    25    27    1
     4    27    22    1
     5    22     1    1
     6     1     2   ar
     7     2    17    1
     8    17    18   am
     9    17    19    2
    10     2     3   ar
    11     3     4   ar
    12     4     5   ar
    13     5     6   ar
    14     6     7   ar
    15     7    10    1
    16    10    11   ar
    17    11    12   ar
    18    12    13   ar
    19    13    14   ar
    20    14    15    1
    21    14    16   ar
    22     7     8   ar
    23     8     9   ar
    24    27    28    1
    25    28    29    1
    26    29    30    1
    27    30    31    1
    28    30    32    1
    29    30    25    1
    30     9     1   ar
    31     9     5   ar
    32    16    10   ar
    33    22    23    1
    34    18    20    1
    35    18    21    1
    36    32    33    1
    37    32    34    1
@<TRIPOS>MOLECULE
*****
 34 37 0 0 0
SMALL
GASTEIGER

@<TRIPOS>ATOM
      1 C         142.7640  141.7287  162.7191 C.ar    1  UNL1        0.0685
      2 C         143.4963  142.8323  162.0151 C.ar    1  UNL1        0.0885
      3 C         144.1081  143.9503  162.8060 C.ar    1  UNL1        0.1263
      4 N         143.9876  143.9647  164.3012 N.ar    1  UNL1       -0.1633
      5 N         143.2554  142.8610  165.0052 N.ar    1  UNL1       -0.2270
      6 C         142.9762  142.6084  166.4572 C.ar    1  UNL1        0.1004
      7 C         142.1918  141.3343  166.5635 C.ar    1  UNL1        0.0209
      8 C         141.9862  140.7994  165.1773 C.ar    1  UNL1        0.0220
      9 C         142.6435  141.7430  164.2142 C.ar    1  UNL1        0.0961
     10 C         141.6995  140.7053  167.8332 C.ar    1  UNL1        0.0069
     11 C         142.6179  139.8444  168.6489 C.ar    1  UNL1        0.0209
     12 C         142.1254  139.2155  169.9186 C.ar    1  UNL1        0.1013
     13 N         140.7147  139.4475  170.3725 N.ar    1  UNL1       -0.2165
     14 C         139.7964  140.3084  169.5568 C.ar    1  UNL1        0.2223
     15 F         138.3857  140.5405  170.0107 F       1  UNL1       -0.1832
     16 C         140.2888  140.9373  168.2871 C.ar    1  UNL1        0.0497
     17 C         143.6167  142.8180  160.5199 C.2     1  UNL1        0.2456
     18 N         142.9338  143.8740  159.7024 N.am    1  UNL1       -0.3252
     19 O         144.4198  141.7476  159.8424 O.2     1  UNL1       -0.2703
     20 H         142.4067  144.5766  160.1471 H       1  UNL1        0.1453
     21 H         143.0128  143.8646  158.7211 H       1  UNL1        0.1453
     22 N         142.1521  140.6107  161.9280 N.pl3   1  UNL1       -0.3327
     23 H         142.7212  139.8903  161.5725 H       1  UNL1        0.1468
     24 C         141.0322  138.6895  162.2147 C.3     1  UNL1        0.0029
     25 C         139.7713  139.4000  161.8205 C.3     1  UNL1        0.0282
     26 C         139.1333  138.0612  162.0448 C.3     1  UNL1        0.0029
     27 C         140.6730  140.5903  161.6787 C.3     1  UNL1        0.0702
     28 C         139.8361  141.7566  161.2437 C.3     1  UNL1        0.0208
     29 C         138.4172  141.2871  161.1167 C.3     1  UNL1        0.0160
     30 C         138.3772  139.8307  161.4732 C.3     1  UNL1        0.0404
     31 C         138.0305  138.4018  161.7701 C.3     1  UNL1        0.0156
     32 N         136.9105  139.9626  161.1879 N.3     1  UNL1       -0.3231
     33 H         136.7027  140.9226  160.9127 H       1  UNL1        0.1188
     34 H         136.3786  139.7264  162.0256 H       1  UNL1        0.1188
@<TRIPOS>BOND
     1    24    25    1
     2    25    26    1
     3    25    27    1
     4    27    22    1
     5    22     1    1
     6     1     2   ar
     7     2    17    1
     8    17    18   am
     9    17    19    2
    10     2     3   ar
    11     3     4   ar
    12     4     5   ar
    13     5     6   ar
    14     6     7   ar
    15     7    10    1
    16    10    11   ar
    17    11    12   ar
    18    12    13   ar
    19    13    14   ar
    20    14    15    1
    21    14    16   ar
    22     7     8   ar
    23     8     9   ar
    24    27    28    1
    25    28    29    1
    26    29    30    1
    27    30    31    1
    28    30    32    1
    29    30    25    1
    30     9     1   ar
    31     9     5   ar
    32    16    10   ar
    33    22    23    1
    34    18    20    1
    35    18    21    1
    36    32    33    1
    37    32    34    1
