@<TRIPOS>MOLECULE
*****
 33 35 0 0 0
SMALL
GASTEIGER

@<TRIPOS>ATOM
      1 C         139.4439  138.3240  160.4161 C.3     1  UNL1        0.1913
      2 S         139.5349  138.8578  161.8149 S.O2    1  UNL1        0.0457
      3 O         140.7669  139.6275  161.4410 O.2     1  UNL1       -0.1572
      4 O         138.3030  138.0881  162.1888 O.2     1  UNL1       -0.1572
      5 N         139.6260  139.3917  163.2137 N.3     1  UNL1       -0.1559
      6 C         140.5772  140.5074  163.5302 C.3     1  UNL1        0.1168
      7 C         140.6683  141.0412  164.9290 C.3     1  UNL1        0.1099
      8 N         139.8081  140.4593  166.0113 N.pl3   1  UNL1       -0.3045
      9 C         138.8568  139.3436  165.6948 C.3     1  UNL1        0.1099
     10 C         138.7658  138.8098  164.2960 C.3     1  UNL1        0.1168
     11 C         139.8991  140.9932  167.4102 C.ar    1  UNL1        0.0481
     12 C         139.3912  140.1746  168.5599 C.ar    1  UNL1        0.0168
     13 C         139.4823  140.7085  169.9588 C.ar    1  UNL1        0.0309
     14 C         140.0813  142.0610  170.2078 C.ar    1  UNL1        0.1402
     15 F         140.1724  142.5949  171.6066 F       1  UNL1       -0.2042
     16 C         140.5892  142.8796  169.0580 C.ar    1  UNL1        0.0309
     17 C         140.4982  142.3457  167.6592 C.ar    1  UNL1        0.0168
     18 C         139.0159  139.2250  159.2958 C.3     1  UNL1        0.1293
     19 N         139.6145  139.0601  157.9303 N.am    1  UNL1       -0.1645
     20 O         138.7322  139.0799  156.7173 O.3     1  UNL1       -0.2914
     21 C         141.0952  138.8755  157.7778 C.2     1  UNL1        0.3268
     22 O         141.6937  138.7106  156.4122 O.2     1  UNL1       -0.2627
     23 H         137.8101  139.2072  156.9902 H       1  UNL1        0.2417
     24 C         137.9894  140.2909  159.5410 C.3     1  UNL1        0.0318
     25 C         138.9862  142.4692  158.5354 C.3     1  UNL1        0.0080
     26 C         138.4159  141.7198  159.7030 C.3     1  UNL1        0.0604
     27 C         138.2721  142.3994  161.0324 C.ar    1  UNL1        0.1390
     28 N         138.9211  143.7310  161.2682 N.ar    1  UNL1       -0.2268
     29 C         138.7774  144.4106  162.5976 C.ar    1  UNL1        0.1314
     30 C         137.9845  143.7585  163.6914 C.ar    1  UNL1        0.1783
     31 F         137.8408  144.4380  165.0209 F       1  UNL1       -0.2009
     32 C         137.3355  142.4269  163.4557 C.ar    1  UNL1        0.1314
     33 N         137.4793  141.7473  162.1261 N.ar    1  UNL1       -0.2268
@<TRIPOS>BOND
     1    26    25    1
     2    26    24    1
     3    18    24    1
     4    18     1    1
     5     1     2    1
     6     2     3    2
     7     2     4    2
     8     2     5    1
     9     5     6    1
    10     6     7    1
    11     7     8    1
    12     8    11    1
    13    11    12   ar
    14    12    13   ar
    15    13    14   ar
    16    14    15    1
    17    14    16   ar
    18    16    17   ar
    19     8     9    1
    20     9    10    1
    21    18    19    1
    22    19    20    1
    23    19    21   am
    24    21    22    2
    25    26    27    1
    26    27    28   ar
    27    28    29   ar
    28    29    30   ar
    29    30    31    1
    30    30    32   ar
    31    32    33   ar
    32    10     5    1
    33    33    27   ar
    34    17    11   ar
    35    20    23    1
@<TRIPOS>MOLECULE
*****
 33 35 0 0 0
SMALL
GASTEIGER

@<TRIPOS>ATOM
      1 C         137.3990  139.8431  160.6598 C.3     1  UNL1        0.1913
      2 S         137.9265  140.1160  162.0372 S.O2    1  UNL1        0.0457
      3 O         138.0506  141.5725  161.7010 O.2     1  UNL1       -0.1572
      4 O         137.8023  138.6595  162.3733 O.2     1  UNL1       -0.1572
      5 N         138.4540  140.3890  163.4146 N.3     1  UNL1       -0.1559
      6 C         138.9976  141.7451  163.7545 C.3     1  UNL1        0.1168
      7 C         139.5251  142.0180  165.1318 C.3     1  UNL1        0.1099
      8 N         139.5090  140.9348  166.1694 N.pl3   1  UNL1       -0.3045
      9 C         138.9655  139.5787  165.8295 C.3     1  UNL1        0.1099
     10 C         138.4380  139.3058  164.4521 C.3     1  UNL1        0.1168
     11 C         140.0366  141.2077  167.5468 C.ar    1  UNL1        0.0481
     12 C         140.7451  142.4977  167.8366 C.ar    1  UNL1        0.0168
     13 C         141.2726  142.7707  169.2140 C.ar    1  UNL1        0.0309
     14 C         141.0917  141.7536  170.3016 C.ar    1  UNL1        0.1402
     15 F         141.6192  142.0265  171.6790 F       1  UNL1       -0.2042
     16 C         140.3832  140.4636  170.0118 C.ar    1  UNL1        0.0309
     17 C         139.8556  140.1907  168.6344 C.ar    1  UNL1        0.0168
     18 C         138.3292  139.8609  159.4832 C.3     1  UNL1        0.1293
     19 N         138.1005  140.8294  158.3609 N.am    1  UNL1       -0.1645
     20 O         137.2407  140.4378  157.1957 O.3     1  UNL1       -0.2914
     21 C         138.7315  142.1895  158.4037 C.2     1  UNL1        0.3268
     22 O         138.5028  143.1581  157.2812 O.2     1  UNL1       -0.2627
     23 H         136.9138  139.5337  157.3246 H       1  UNL1        0.2417
     24 C         139.4882  138.9101  159.4290 C.3     1  UNL1        0.0318
     25 C         141.7703  140.1004  159.0746 C.3     1  UNL1        0.0080
     26 C         140.8289  139.3313  159.9535 C.3     1  UNL1        0.0604
     27 C         141.2283  138.9835  161.3569 C.ar    1  UNL1        0.1390
     28 N         140.9696  137.6057  161.8907 N.ar    1  UNL1       -0.2268
     29 C         141.3690  137.2579  163.2940 C.ar    1  UNL1        0.1314
     30 C         142.0270  138.2878  164.1637 C.ar    1  UNL1        0.1783
     31 F         142.4264  137.9400  165.5671 F       1  UNL1       -0.2009
     32 C         142.2856  139.6656  163.6300 C.ar    1  UNL1        0.1314
     33 N         141.8862  140.0134  162.2265 N.ar    1  UNL1       -0.2268
@<TRIPOS>BOND
     1    26    25    1
     2    26    24    1
     3    18    24    1
     4    18     1    1
     5     1     2    1
     6     2     3    2
     7     2     4    2
     8     2     5    1
     9     5     6    1
    10     6     7    1
    11     7     8    1
    12     8    11    1
    13    11    12   ar
    14    12    13   ar
    15    13    14   ar
    16    14    15    1
    17    14    16   ar
    18    16    17   ar
    19     8     9    1
    20     9    10    1
    21    18    19    1
    22    19    20    1
    23    19    21   am
    24    21    22    2
    25    26    27    1
    26    27    28   ar
    27    28    29   ar
    28    29    30   ar
    29    30    31    1
    30    30    32   ar
    31    32    33   ar
    32    10     5    1
    33    33    27   ar
    34    17    11   ar
    35    20    23    1
@<TRIPOS>MOLECULE
*****
 33 35 0 0 0
SMALL
GASTEIGER

@<TRIPOS>ATOM
      1 C         142.2982  143.5450  159.5739 C.3     1  UNL1        0.1913
      2 S         142.3881  143.1234  161.0106 S.O2    1  UNL1        0.0457
      3 O         142.4772  141.6882  160.5839 O.2     1  UNL1       -0.1572
      4 O         142.2989  144.5586  161.4374 O.2     1  UNL1       -0.1572
      5 N         142.4779  142.7017  162.4474 N.3     1  UNL1       -0.1559
      6 C         143.6267  143.1636  163.2941 C.3     1  UNL1        0.1168
      7 C         143.7165  142.7420  164.7308 C.3     1  UNL1        0.1099
      8 N         142.6576  141.8584  165.3207 N.pl3   1  UNL1       -0.3045
      9 C         141.5088  141.3965  164.4740 C.3     1  UNL1        0.1099
     10 C         141.4190  141.8182  163.0373 C.3     1  UNL1        0.1168
     11 C         142.7474  141.4367  166.7575 C.ar    1  UNL1        0.0481
     12 C         142.4470  140.0186  167.1431 C.ar    1  UNL1        0.0168
     13 C         142.5369  139.5969  168.5799 C.ar    1  UNL1        0.0309
     14 C         142.9272  140.5934  169.6309 C.ar    1  UNL1        0.1402
     15 F         143.0170  140.1718  171.0676 F       1  UNL1       -0.2042
     16 C         143.2275  142.0116  169.2452 C.ar    1  UNL1        0.0309
     17 C         143.1377  142.4332  167.8085 C.ar    1  UNL1        0.0168
     18 C         140.9576  143.6852  158.9159 C.3     1  UNL1        0.1293
     19 N         140.3448  145.0435  158.7441 N.am    1  UNL1       -0.1645
     20 O         139.8242  145.7879  159.9379 O.3     1  UNL1       -0.2914
     21 C         140.2525  145.6575  157.3787 C.2     1  UNL1        0.3268
     22 O         139.6397  147.0159  157.2070 O.2     1  UNL1       -0.2627
     23 H         139.9602  145.2541  160.7363 H       1  UNL1        0.2417
     24 C         140.2297  142.4671  158.4296 C.3     1  UNL1        0.0318
     25 C         137.7467  142.0697  157.7764 C.3     1  UNL1        0.0080
     26 C         138.8023  142.2370  158.8289 C.3     1  UNL1        0.0604
     27 C         138.4304  142.1743  160.2807 C.ar    1  UNL1        0.1390
     28 N         138.1934  140.8468  160.9376 N.ar    1  UNL1       -0.2268
     29 C         137.8216  140.7841  162.3893 C.ar    1  UNL1        0.1314
     30 C         137.6867  142.0490  163.1844 C.ar    1  UNL1        0.1783
     31 F         137.3148  141.9863  164.6361 F       1  UNL1       -0.2009
     32 C         137.9237  143.3765  162.5275 C.ar    1  UNL1        0.1314
     33 N         138.2956  143.4392  161.0756 N.ar    1  UNL1       -0.2268
@<TRIPOS>BOND
     1    26    25    1
     2    26    24    1
     3    18    24    1
     4    18     1    1
     5     1     2    1
     6     2     3    2
     7     2     4    2
     8     2     5    1
     9     5     6    1
    10     6     7    1
    11     7     8    1
    12     8    11    1
    13    11    12   ar
    14    12    13   ar
    15    13    14   ar
    16    14    15    1
    17    14    16   ar
    18    16    17   ar
    19     8     9    1
    20     9    10    1
    21    18    19    1
    22    19    20    1
    23    19    21   am
    24    21    22    2
    25    26    27    1
    26    27    28   ar
    27    28    29   ar
    28    29    30   ar
    29    30    31    1
    30    30    32   ar
    31    32    33   ar
    32    10     5    1
    33    33    27   ar
    34    17    11   ar
    35    20    23    1
@<TRIPOS>MOLECULE
*****
 33 35 0 0 0
SMALL
GASTEIGER

@<TRIPOS>ATOM
      1 C         140.3769  145.6924  160.6427 C.3     1  UNL1        0.1913
      2 S         140.3540  144.9995  161.9729 S.O2    1  UNL1        0.0457
      3 O         138.8552  145.0589  161.9780 O.2     1  UNL1       -0.1572
      4 O         141.8528  144.9401  161.9677 O.2     1  UNL1       -0.1572
      5 N         140.3310  144.3066  163.3031 N.3     1  UNL1       -0.1559
      6 C         139.3244  144.7075  164.3403 C.3     1  UNL1        0.1168
      7 C         139.3015  144.0146  165.6704 C.3     1  UNL1        0.1099
      8 N         140.2852  142.9208  165.9634 N.pl3   1  UNL1       -0.3045
      9 C         141.2919  142.5198  164.9261 C.3     1  UNL1        0.1099
     10 C         141.3148  143.2128  163.5960 C.3     1  UNL1        0.1168
     11 C         140.2623  142.2278  167.2936 C.ar    1  UNL1        0.0481
     12 C         140.4561  143.0175  168.5540 C.ar    1  UNL1        0.0168
     13 C         140.4331  142.3246  169.8843 C.ar    1  UNL1        0.0309
     14 C         140.2164  140.8420  169.9539 C.ar    1  UNL1        0.1402
     15 F         140.1934  140.1491  171.2841 F       1  UNL1       -0.2042
     16 C         140.0226  140.0523  168.6934 C.ar    1  UNL1        0.0309
     17 C         140.0455  140.7452  167.3633 C.ar    1  UNL1        0.0168
     18 C         140.6813  144.9143  159.3969 C.3     1  UNL1        0.1293
     19 N         141.1311  145.6292  158.1573 N.am    1  UNL1       -0.1645
     20 O         142.5844  145.9424  157.9576 O.3     1  UNL1       -0.2914
     21 C         140.1275  146.0310  157.1174 C.2     1  UNL1        0.3268
     22 O         140.5773  146.7460  155.8777 O.2     1  UNL1       -0.2627
     23 H         143.0926  145.6168  158.7170 H       1  UNL1        0.2417
     24 C         140.5360  143.4214  159.3907 C.3     1  UNL1        0.0318
     25 C         141.9364  142.1453  157.6128 C.3     1  UNL1        0.0080
     26 C         141.7086  142.5552  159.0378 C.3     1  UNL1        0.0604
     27 C         142.6535  142.0988  160.1096 C.ar    1  UNL1        0.1390
     28 N         142.3172  140.8991  160.9448 N.ar    1  UNL1       -0.2268
     29 C         143.2621  140.4427  162.0166 C.ar    1  UNL1        0.1314
     30 C         144.5434  141.1860  162.2533 C.ar    1  UNL1        0.1783
     31 F         145.4883  140.7296  163.3251 F       1  UNL1       -0.2009
     32 C         144.8797  142.3857  161.4180 C.ar    1  UNL1        0.1314
     33 N         143.9347  142.8421  160.3462 N.ar    1  UNL1       -0.2268
@<TRIPOS>BOND
     1    26    25    1
     2    26    24    1
     3    18    24    1
     4    18     1    1
     5     1     2    1
     6     2     3    2
     7     2     4    2
     8     2     5    1
     9     5     6    1
    10     6     7    1
    11     7     8    1
    12     8    11    1
    13    11    12   ar
    14    12    13   ar
    15    13    14   ar
    16    14    15    1
    17    14    16   ar
    18    16    17   ar
    19     8     9    1
    20     9    10    1
    21    18    19    1
    22    19    20    1
    23    19    21   am
    24    21    22    2
    25    26    27    1
    26    27    28   ar
    27    28    29   ar
    28    29    30   ar
    29    30    31    1
    30    30    32   ar
    31    32    33   ar
    32    10     5    1
    33    33    27   ar
    34    17    11   ar
    35    20    23    1
@<TRIPOS>MOLECULE
*****
 33 35 0 0 0
SMALL
GASTEIGER

@<TRIPOS>ATOM
      1 C         138.7606  137.8134  162.9878 C.3     1  UNL1        0.1913
      2 S         138.9326  138.9647  162.0418 S.O2    1  UNL1        0.0457
      3 O         140.0989  138.2680  161.4060 O.2     1  UNL1       -0.1572
      4 O         137.7663  139.6614  162.6776 O.2     1  UNL1       -0.1572
      5 N         139.1047  140.1160  161.0957 N.3     1  UNL1       -0.1559
      6 C         140.0618  140.0055  159.9462 C.3     1  UNL1        0.1168
      7 C         140.2338  141.1568  159.0002 C.3     1  UNL1        0.1099
      8 N         139.4487  142.4185  159.2038 N.pl3   1  UNL1       -0.3045
      9 C         138.4915  142.5290  160.3534 C.3     1  UNL1        0.1099
     10 C         138.3195  141.3778  161.2993 C.3     1  UNL1        0.1168
     11 C         139.6207  143.5699  158.2577 C.ar    1  UNL1        0.0481
     12 C         139.0499  143.4942  156.8727 C.ar    1  UNL1        0.0168
     13 C         139.2220  144.6455  155.9266 C.ar    1  UNL1        0.0309
     14 C         139.9648  145.8725  156.3657 C.ar    1  UNL1        0.1402
     15 F         140.1369  147.0237  155.4197 F       1  UNL1       -0.2042
     16 C         140.5356  145.9481  157.7509 C.ar    1  UNL1        0.0309
     17 C         140.3635  144.7968  158.6968 C.ar    1  UNL1        0.0168
     18 C         139.2574  137.9216  164.3990 C.3     1  UNL1        0.1293
     19 N         138.3262  138.3588  165.4905 N.am    1  UNL1       -0.1645
     20 O         137.8878  139.7910  165.5734 O.3     1  UNL1       -0.2914
     21 C         137.8332  137.3640  166.4992 C.2     1  UNL1        0.3268
     22 O         136.9019  137.8014  167.5907 O.2     1  UNL1       -0.2627
     23 H         138.2946  140.2960  164.8520 H       1  UNL1        0.2417
     24 C         140.6856  137.5924  164.7186 C.3     1  UNL1        0.0318
     25 C         142.7867  138.4664  165.9722 C.3     1  UNL1        0.0080
     26 C         141.6631  138.6936  165.0048 C.3     1  UNL1        0.0604
     27 C         141.5169  140.0220  164.3237 C.ar    1  UNL1        0.1390
     28 N         142.3157  140.3245  163.0906 N.ar    1  UNL1       -0.2268
     29 C         142.1696  141.6529  162.4095 C.ar    1  UNL1        0.1314
     30 C         141.2245  142.6788  162.9614 C.ar    1  UNL1        0.1783
     31 F         141.0784  144.0072  162.2802 F       1  UNL1       -0.2009
     32 C         140.4257  142.3763  164.1944 C.ar    1  UNL1        0.1314
     33 N         140.5719  141.0478  164.8756 N.ar    1  UNL1       -0.2268
@<TRIPOS>BOND
     1    26    25    1
     2    26    24    1
     3    18    24    1
     4    18     1    1
     5     1     2    1
     6     2     3    2
     7     2     4    2
     8     2     5    1
     9     5     6    1
    10     6     7    1
    11     7     8    1
    12     8    11    1
    13    11    12   ar
    14    12    13   ar
    15    13    14   ar
    16    14    15    1
    17    14    16   ar
    18    16    17   ar
    19     8     9    1
    20     9    10    1
    21    18    19    1
    22    19    20    1
    23    19    21   am
    24    21    22    2
    25    26    27    1
    26    27    28   ar
    27    28    29   ar
    28    29    30   ar
    29    30    31    1
    30    30    32   ar
    31    32    33   ar
    32    10     5    1
    33    33    27   ar
    34    17    11   ar
    35    20    23    1
@<TRIPOS>MOLECULE
*****
 33 35 0 0 0
SMALL
GASTEIGER

@<TRIPOS>ATOM
      1 C         140.6484  145.4663  160.2987 C.3     1  UNL1        0.1913
      2 S         140.5654  144.8162  161.6478 S.O2    1  UNL1        0.0457
      3 O         141.9952  144.3797  161.5255 O.2     1  UNL1       -0.1572
      4 O         139.1356  145.2527  161.7702 O.2     1  UNL1       -0.1572
      5 N         140.4824  144.1660  162.9971 N.3     1  UNL1       -0.1559
      6 C         141.3682  143.0003  163.3237 C.3     1  UNL1        0.1168
      7 C         141.2851  142.3502  164.6729 C.3     1  UNL1        0.1099
      8 N         140.3164  142.8657  165.6955 N.pl3   1  UNL1       -0.3045
      9 C         139.4307  144.0314  165.3689 C.3     1  UNL1        0.1099
     10 C         139.5137  144.6815  164.0197 C.3     1  UNL1        0.1168
     11 C         140.2334  142.2155  167.0448 C.ar    1  UNL1        0.0481
     12 C         139.9891  140.7395  167.1523 C.ar    1  UNL1        0.0168
     13 C         139.9061  140.0893  168.5015 C.ar    1  UNL1        0.0309
     14 C         140.0675  140.9152  169.7432 C.ar    1  UNL1        0.1402
     15 F         139.9845  140.2651  171.0925 F       1  UNL1       -0.2042
     16 C         140.3119  142.3913  169.6357 C.ar    1  UNL1        0.0309
     17 C         140.3948  143.0414  168.2865 C.ar    1  UNL1        0.0168
     18 C         140.4208  144.6531  159.0589 C.3     1  UNL1        0.1293
     19 N         140.2580  145.3360  157.7334 N.am    1  UNL1       -0.1645
     20 O         139.8668  146.7831  157.6782 O.3     1  UNL1       -0.2914
     21 C         140.4865  144.5719  156.4630 C.2     1  UNL1        0.3268
     22 O         140.3238  145.2549  155.1374 O.2     1  UNL1       -0.2627
     23 H         139.7593  147.1236  158.5801 H       1  UNL1        0.2417
     24 C         140.3558  143.1569  159.1448 C.3     1  UNL1        0.0318
     25 C         138.0032  142.4426  158.3050 C.3     1  UNL1        0.0080
     26 C         139.0415  142.4760  159.3872 C.3     1  UNL1        0.0604
     27 C         138.7653  141.8284  160.7117 C.ar    1  UNL1        0.1390
     28 N         139.5686  140.6388  161.1470 N.ar    1  UNL1       -0.2268
     29 C         139.2925  139.9913  162.4715 C.ar    1  UNL1        0.1314
     30 C         138.2129  140.5333  163.3608 C.ar    1  UNL1        0.1783
     31 F         137.9367  139.8857  164.6853 F       1  UNL1       -0.2009
     32 C         137.4095  141.7229  162.9255 C.ar    1  UNL1        0.1314
     33 N         137.6857  142.3705  161.6009 N.ar    1  UNL1       -0.2268
@<TRIPOS>BOND
     1    26    25    1
     2    26    24    1
     3    18    24    1
     4    18     1    1
     5     1     2    1
     6     2     3    2
     7     2     4    2
     8     2     5    1
     9     5     6    1
    10     6     7    1
    11     7     8    1
    12     8    11    1
    13    11    12   ar
    14    12    13   ar
    15    13    14   ar
    16    14    15    1
    17    14    16   ar
    18    16    17   ar
    19     8     9    1
    20     9    10    1
    21    18    19    1
    22    19    20    1
    23    19    21   am
    24    21    22    2
    25    26    27    1
    26    27    28   ar
    27    28    29   ar
    28    29    30   ar
    29    30    31    1
    30    30    32   ar
    31    32    33   ar
    32    10     5    1
    33    33    27   ar
    34    17    11   ar
    35    20    23    1
@<TRIPOS>MOLECULE
*****
 33 35 0 0 0
SMALL
GASTEIGER

@<TRIPOS>ATOM
      1 C         140.3608  140.5272  160.1679 C.3     1  UNL1        0.1913
      2 S         140.3384  140.7508  161.6510 S.O2    1  UNL1        0.0457
      3 O         141.8200  140.5239  161.7075 O.2     1  UNL1       -0.1572
      4 O         138.8568  140.9777  161.5944 O.2     1  UNL1       -0.1572
      5 N         140.3161  140.9744  163.1341 N.3     1  UNL1       -0.1559
      6 C         139.0109  140.9727  163.8733 C.3     1  UNL1        0.1168
      7 C         138.9886  141.1962  165.3563 C.3     1  UNL1        0.1099
      8 N         140.2716  141.4214  166.1002 N.pl3   1  UNL1       -0.3045
      9 C         141.5768  141.4231  165.3610 C.3     1  UNL1        0.1099
     10 C         141.5990  141.1996  163.8780 C.3     1  UNL1        0.1168
     11 C         140.2492  141.6450  167.5833 C.ar    1  UNL1        0.0481
     12 C         140.6434  142.9780  168.1469 C.ar    1  UNL1        0.0168
     13 C         140.6211  143.2016  169.6300 C.ar    1  UNL1        0.0309
     14 C         140.2046  142.0921  170.5495 C.ar    1  UNL1        0.1402
     15 F         140.1823  142.3155  172.0326 F       1  UNL1       -0.2042
     16 C         139.8104  140.7590  169.9859 C.ar    1  UNL1        0.0309
     17 C         139.8327  140.5355  168.5028 C.ar    1  UNL1        0.0168
     18 C         140.1564  141.6817  159.2322 C.3     1  UNL1        0.1293
     19 N         139.0846  141.6176  158.1849 N.am    1  UNL1       -0.1645
     20 O         139.1543  142.5144  156.9845 O.3     1  UNL1       -0.2914
     21 C         137.9429  140.6568  158.3380 C.2     1  UNL1        0.3268
     22 O         136.8710  140.5927  157.2906 O.2     1  UNL1       -0.2627
     23 H         139.9485  143.0684  157.0405 H       1  UNL1        0.2417
     24 C         141.0240  142.9003  159.3440 C.3     1  UNL1        0.0318
     25 C         140.2229  145.3189  158.8352 C.3     1  UNL1        0.0080
     26 C         140.4363  144.1992  159.8103 C.3     1  UNL1        0.0604
     27 C         140.0621  144.3784  161.2518 C.ar    1  UNL1        0.1390
     28 N         141.1290  144.6094  162.2805 N.ar    1  UNL1       -0.2268
     29 C         140.7547  144.7886  163.7220 C.ar    1  UNL1        0.1314
     30 C         139.3135  144.7369  164.1347 C.ar    1  UNL1        0.1783
     31 F         138.9393  144.9161  165.5761 F       1  UNL1       -0.2009
     32 C         138.2466  144.5058  163.1059 C.ar    1  UNL1        0.1314
     33 N         138.6209  144.3266  161.6644 N.ar    1  UNL1       -0.2268
@<TRIPOS>BOND
     1    26    25    1
     2    26    24    1
     3    18    24    1
     4    18     1    1
     5     1     2    1
     6     2     3    2
     7     2     4    2
     8     2     5    1
     9     5     6    1
    10     6     7    1
    11     7     8    1
    12     8    11    1
    13    11    12   ar
    14    12    13   ar
    15    13    14   ar
    16    14    15    1
    17    14    16   ar
    18    16    17   ar
    19     8     9    1
    20     9    10    1
    21    18    19    1
    22    19    20    1
    23    19    21   am
    24    21    22    2
    25    26    27    1
    26    27    28   ar
    27    28    29   ar
    28    29    30   ar
    29    30    31    1
    30    30    32   ar
    31    32    33   ar
    32    10     5    1
    33    33    27   ar
    34    17    11   ar
    35    20    23    1
@<TRIPOS>MOLECULE
*****
 33 35 0 0 0
SMALL
GASTEIGER

@<TRIPOS>ATOM
      1 C         143.1667  142.2522  166.8391 C.3     1  UNL1        0.1913
      2 S         142.8344  141.6248  165.5178 S.O2    1  UNL1        0.0457
      3 O         142.5114  142.9777  164.9565 O.2     1  UNL1       -0.1572
      4 O         143.1574  140.2718  166.0790 O.2     1  UNL1       -0.1572
      5 N         142.5020  140.9973  164.1964 N.3     1  UNL1       -0.1559
      6 C         142.1852  141.8634  163.0135 C.3     1  UNL1        0.1168
      7 C         141.8529  141.2360  161.6922 C.3     1  UNL1        0.1099
      8 N         141.8373  139.7424  161.5539 N.pl3   1  UNL1       -0.3045
      9 C         142.1542  138.8763  162.7369 C.3     1  UNL1        0.1099
     10 C         142.4865  139.5038  164.0581 C.3     1  UNL1        0.1168
     11 C         141.5050  139.1150  160.2325 C.ar    1  UNL1        0.0481
     12 C         142.5890  138.4907  159.4048 C.ar    1  UNL1        0.0168
     13 C         142.2566  137.8633  158.0835 C.ar    1  UNL1        0.0309
     14 C         140.8402  137.8602  157.5899 C.ar    1  UNL1        0.1402
     15 F         140.5078  137.2328  156.2686 F       1  UNL1       -0.2042
     16 C         139.7561  138.4845  158.4176 C.ar    1  UNL1        0.0309
     17 C         140.0885  139.1118  159.7389 C.ar    1  UNL1        0.0168
     18 C         142.3282  141.9492  168.0453 C.3     1  UNL1        0.1293
     19 N         142.9704  141.4096  169.2888 N.am    1  UNL1       -0.1645
     20 O         143.7198  142.3301  170.2060 O.3     1  UNL1       -0.2914
     21 C         142.8632  139.9495  169.6152 C.2     1  UNL1        0.3268
     22 O         143.5055  139.4098  170.8588 O.2     1  UNL1       -0.2627
     23 H         143.6930  143.2324  169.8511 H       1  UNL1        0.2417
     24 C         140.8474  142.1858  168.0080 C.3     1  UNL1        0.0318
     25 C         139.3880  140.3535  169.1318 C.3     1  UNL1        0.0080
     26 C         139.9050  141.0245  167.8938 C.3     1  UNL1        0.0604
     27 C         139.4795  140.5341  166.5416 C.ar    1  UNL1        0.1390
     28 N         139.3910  139.0612  166.2716 N.ar    1  UNL1       -0.2268
     29 C         138.9655  138.5709  164.9195 C.ar    1  UNL1        0.1314
     30 C         138.6285  139.5533  163.8372 C.ar    1  UNL1        0.1783
     31 F         138.2030  139.0629  162.4850 F       1  UNL1       -0.2009
     32 C         138.7170  141.0262  164.1072 C.ar    1  UNL1        0.1314
     33 N         139.1425  141.5165  165.4594 N.ar    1  UNL1       -0.2268
@<TRIPOS>BOND
     1    26    25    1
     2    26    24    1
     3    18    24    1
     4    18     1    1
     5     1     2    1
     6     2     3    2
     7     2     4    2
     8     2     5    1
     9     5     6    1
    10     6     7    1
    11     7     8    1
    12     8    11    1
    13    11    12   ar
    14    12    13   ar
    15    13    14   ar
    16    14    15    1
    17    14    16   ar
    18    16    17   ar
    19     8     9    1
    20     9    10    1
    21    18    19    1
    22    19    20    1
    23    19    21   am
    24    21    22    2
    25    26    27    1
    26    27    28   ar
    27    28    29   ar
    28    29    30   ar
    29    30    31    1
    30    30    32   ar
    31    32    33   ar
    32    10     5    1
    33    33    27   ar
    34    17    11   ar
    35    20    23    1
@<TRIPOS>MOLECULE
*****
 33 35 0 0 0
SMALL
GASTEIGER

@<TRIPOS>ATOM
      1 C         138.5225  141.5962  159.5599 C.3     1  UNL1        0.1913
      2 S         138.8024  141.5913  161.0336 S.O2    1  UNL1        0.0457
      3 O         138.0665  142.8904  161.1776 O.2     1  UNL1       -0.1572
      4 O         139.5382  140.2922  160.8895 O.2     1  UNL1       -0.1572
      5 N         139.0822  141.5864  162.5073 N.3     1  UNL1       -0.1559
      6 C         138.6866  142.7627  163.3497 C.3     1  UNL1        0.1168
      7 C         138.9665  142.7578  164.8233 C.3     1  UNL1        0.1099
      8 N         139.6420  141.5766  165.4545 N.pl3   1  UNL1       -0.3045
      9 C         140.0376  140.4003  164.6121 C.3     1  UNL1        0.1099
     10 C         139.7577  140.4052  163.1385 C.3     1  UNL1        0.1168
     11 C         139.9218  141.5717  166.9282 C.ar    1  UNL1        0.0481
     12 C         140.3589  142.8328  167.6128 C.ar    1  UNL1        0.0168
     13 C         140.6388  142.8279  169.0865 C.ar    1  UNL1        0.0309
     14 C         140.4816  141.5620  169.8755 C.ar    1  UNL1        0.1402
     15 F         140.7614  141.5571  171.3492 F       1  UNL1       -0.2042
     16 C         140.0445  140.3009  169.1909 C.ar    1  UNL1        0.0309
     17 C         139.7646  140.3058  167.7173 C.ar    1  UNL1        0.0168
     18 C         139.5323  142.1631  158.6066 C.3     1  UNL1        0.1293
     19 N         140.7483  141.3651  158.2399 N.am    1  UNL1       -0.1645
     20 O         141.9226  141.3164  159.1720 O.3     1  UNL1       -0.2914
     21 C         140.7901  140.6158  156.9412 C.2     1  UNL1        0.3268
     22 O         142.0061  139.8178  156.5745 O.2     1  UNL1       -0.2627
     23 H         141.7329  141.8506  159.9592 H       1  UNL1        0.2417
     24 C         139.3260  143.5282  158.0199 C.3     1  UNL1        0.0318
     25 C         140.7633  145.5968  157.3829 C.3     1  UNL1        0.0080
     26 C         140.2225  144.6612  158.4234 C.3     1  UNL1        0.0604
     27 C         140.5783  144.8586  159.8671 C.ar    1  UNL1        0.1390
     28 N         141.7416  144.1206  160.4606 N.ar    1  UNL1       -0.2268
     29 C         142.0974  144.3180  161.9043 C.ar    1  UNL1        0.1314
     30 C         141.2898  145.2534  162.7546 C.ar    1  UNL1        0.1783
     31 F         141.6456  145.4508  164.1984 F       1  UNL1       -0.2009
     32 C         140.1265  145.9913  162.1612 C.ar    1  UNL1        0.1314
     33 N         139.7708  145.7939  160.7174 N.ar    1  UNL1       -0.2268
@<TRIPOS>BOND
     1    26    25    1
     2    26    24    1
     3    18    24    1
     4    18     1    1
     5     1     2    1
     6     2     3    2
     7     2     4    2
     8     2     5    1
     9     5     6    1
    10     6     7    1
    11     7     8    1
    12     8    11    1
    13    11    12   ar
    14    12    13   ar
    15    13    14   ar
    16    14    15    1
    17    14    16   ar
    18    16    17   ar
    19     8     9    1
    20     9    10    1
    21    18    19    1
    22    19    20    1
    23    19    21   am
    24    21    22    2
    25    26    27    1
    26    27    28   ar
    27    28    29   ar
    28    29    30   ar
    29    30    31    1
    30    30    32   ar
    31    32    33   ar
    32    10     5    1
    33    33    27   ar
    34    17    11   ar
    35    20    23    1
