@<TRIPOS>MOLECULE
*****
 41 46 0 0 0
SMALL
GASTEIGER

@<TRIPOS>ATOM
      1 C         138.4691  138.8209  162.5270 C.ar    1  UNL1       -0.0061
      2 C         138.0946  140.1095  163.1972 C.ar    1  UNL1       -0.0028
      3 C         138.1004  140.2057  164.6941 C.ar    1  UNL1        0.0030
      4 C         138.4807  139.0133  165.5208 C.ar    1  UNL1        0.0420
      5 C         138.8552  137.7246  164.8506 C.ar    1  UNL1        0.0030
      6 C         138.8494  137.6285  163.3537 C.ar    1  UNL1       -0.0028
      7 C         138.4865  139.1094  167.0177 C.2     1  UNL1        0.2294
      8 O         137.4434  138.3890  167.8195 O.2     1  UNL1       -0.2833
      9 C         139.5354  139.9260  167.7128 C.ar    1  UNL1        0.1833
     10 N         139.4102  140.5503  169.0709 N.ar    1  UNL1       -0.2238
     11 C         140.6910  141.2718  169.3692 C.ar    1  UNL1        0.0988
     12 C         141.1410  142.0681  170.5581 C.ar    1  UNL1        0.0206
     13 C         142.5077  142.6860  170.5731 C.ar    1  UNL1        0.0016
     14 C         143.4245  142.5076  169.3993 C.ar    1  UNL1        0.0016
     15 C         142.9745  141.7112  168.2105 C.ar    1  UNL1        0.0188
     16 C         141.6078  141.0933  168.1955 C.ar    1  UNL1        0.0789
     17 N         140.8935  140.2616  167.1718 N.ar    1  UNL1       -0.3106
     18 C         141.4413  139.8395  165.8407 C.3     1  UNL1        0.0920
     19 C         141.4406  140.8017  164.6901 C.3     1  UNL1        0.0547
     20 C         141.9884  140.3797  163.3590 C.3     1  UNL1        0.1441
     21 O         142.5370  138.9953  163.1785 O.3     1  UNL1       -0.3536
     22 C         142.5377  138.0330  164.3291 C.3     1  UNL1        0.1441
     23 C         141.9899  138.4551  165.6602 C.3     1  UNL1        0.0547
     24 C         138.4634  138.7247  161.0300 C.3     1  UNL1        0.0991
     25 C         140.2102  142.0522  158.5549 C.3     1  UNL1        0.0251
     26 C         138.7219  141.9091  158.6756 C.3     1  UNL1        0.0217
     27 C         138.1396  140.7999  159.5006 C.3     1  UNL1        0.0727
     28 N         139.0457  139.8339  160.2050 N.3     1  UNL1       -0.2689
     29 C         140.5339  139.9771  160.0843 C.3     1  UNL1        0.0727
     30 C         141.1162  141.0862  159.2592 C.3     1  UNL1        0.0217
     31 C         140.7619  145.6389  156.9483 C.ar    1  UNL1        0.0500
     32 C         141.9571  145.3797  156.0798 C.ar    1  UNL1        0.0147
     33 C         142.5700  144.0113  156.0363 C.ar    1  UNL1        0.0009
     34 C         141.9877  142.9022  156.8614 C.ar    1  UNL1       -0.0042
     35 C         140.7925  143.1614  157.7298 C.ar    1  UNL1       -0.0212
     36 C         140.1796  144.5298  157.7733 C.ar    1  UNL1        0.0104
     37 C         138.4751  148.7541  156.0446 C.3     1  UNL1        0.0949
     38 C         139.0880  147.3857  156.0012 C.2     1  UNL1        0.2266
     39 O         138.6399  146.3957  154.9672 O.2     1  UNL1       -0.2748
     40 N         140.1490  147.0073  156.9917 N.am    1  UNL1       -0.2839
     41 H         140.4431  147.6571  157.6703 H       1  UNL1        0.1549
@<TRIPOS>BOND
     1    37    38    1
     2    38    39    2
     3    38    40   am
     4    40    31    1
     5    31    32   ar
     6    32    33   ar
     7    33    34   ar
     8    34    35   ar
     9    35    25    1
    10    25    26    1
    11    26    27    1
    12    27    28    1
    13    28    24    1
    14    24     1    1
    15     1     2   ar
    16     2     3   ar
    17     3     4   ar
    18     4     7    1
    19     7     8    2
    20     7     9    1
    21     9    10   ar
    22    10    11   ar
    23    11    12   ar
    24    12    13   ar
    25    13    14   ar
    26    14    15   ar
    27    15    16   ar
    28    16    17   ar
    29    17    18    1
    30    18    19    1
    31    19    20    1
    32    20    21    1
    33    21    22    1
    34    22    23    1
    35     4     5   ar
    36     5     6   ar
    37    28    29    1
    38    29    30    1
    39    35    36   ar
    40    36    31   ar
    41    30    25    1
    42     6     1   ar
    43    17     9   ar
    44    23    18    1
    45    16    11   ar
    46    40    41    1
@<TRIPOS>MOLECULE
*****
 41 46 0 0 0
SMALL
GASTEIGER

@<TRIPOS>ATOM
      1 C         143.8343  142.6281  159.4647 C.ar    1  UNL1       -0.0061
      2 C         142.5907  143.3926  159.8095 C.ar    1  UNL1       -0.0028
      3 C         142.3603  143.8540  161.2181 C.ar    1  UNL1        0.0030
      4 C         143.3736  143.5510  162.2818 C.ar    1  UNL1        0.0420
      5 C         144.6172  142.7865  161.9369 C.ar    1  UNL1        0.0030
      6 C         144.8476  142.3251  160.5284 C.ar    1  UNL1       -0.0028
      7 C         143.1432  144.0124  163.6903 C.2     1  UNL1        0.2294
      8 O         143.4795  145.4205  164.0827 O.2     1  UNL1       -0.2833
      9 C         142.5766  143.0656  164.7065 C.ar    1  UNL1        0.1833
     10 N         143.3304  142.4317  165.8378 N.ar    1  UNL1       -0.2238
     11 C         142.3764  141.5608  166.6003 C.ar    1  UNL1        0.0988
     12 C         142.5574  140.6931  167.8103 C.ar    1  UNL1        0.0206
     13 C         141.3949  139.9211  168.3603 C.ar    1  UNL1        0.0016
     14 C         140.0514  140.0168  167.7002 C.ar    1  UNL1        0.0016
     15 C         139.8703  140.8845  166.4902 C.ar    1  UNL1        0.0188
     16 C         141.0328  141.6565  165.9402 C.ar    1  UNL1        0.0789
     17 N         141.1565  142.5865  164.7698 N.ar    1  UNL1       -0.3106
     18 C         140.0538  142.9701  163.8281 C.3     1  UNL1        0.0920
     19 C         139.4622  141.9437  162.9081 C.3     1  UNL1        0.0547
     20 C         138.3595  142.3273  161.9663 C.3     1  UNL1        0.1441
     21 O         137.8483  143.7373  161.9446 O.3     1  UNL1       -0.3536
     22 C         138.4399  144.7638  162.8646 C.3     1  UNL1        0.1441
     23 C         139.5426  144.3802  163.8063 C.3     1  UNL1        0.0547
     24 C         144.0648  142.1667  158.0561 C.3     1  UNL1        0.0991
     25 C         143.0518  137.9435  156.8779 C.3     1  UNL1        0.0251
     26 C         143.8499  138.8102  155.9494 C.3     1  UNL1        0.0217
     27 C         144.1875  140.2180  156.3422 C.3     1  UNL1        0.0727
     28 N         143.7271  140.7590  157.6634 N.3     1  UNL1       -0.2689
     29 C         142.9291  139.8922  158.5917 C.3     1  UNL1        0.0727
     30 C         142.5914  138.4845  158.1990 C.3     1  UNL1        0.0217
     31 C         142.8636  133.9796  156.9255 C.ar    1  UNL1        0.0500
     32 C         142.0389  133.7202  155.6997 C.ar    1  UNL1        0.0147
     33 C         141.5518  134.8686  154.8666 C.ar    1  UNL1        0.0009
     34 C         141.8894  136.2763  155.2594 C.ar    1  UNL1       -0.0042
     35 C         142.7142  136.5357  156.4851 C.ar    1  UNL1       -0.0212
     36 C         143.2013  135.3873  157.3182 C.ar    1  UNL1        0.0104
     37 C         144.9338  130.7962  158.0791 C.3     1  UNL1        0.0949
     38 C         144.4467  131.9446  157.2460 C.2     1  UNL1        0.2266
     39 O         145.0557  132.2064  155.9005 O.2     1  UNL1       -0.2748
     40 N         143.3507  132.8312  157.7585 N.am    1  UNL1       -0.2839
     41 H         142.9510  132.6593  158.6417 H       1  UNL1        0.1549
@<TRIPOS>BOND
     1    37    38    1
     2    38    39    2
     3    38    40   am
     4    40    31    1
     5    31    32   ar
     6    32    33   ar
     7    33    34   ar
     8    34    35   ar
     9    35    25    1
    10    25    26    1
    11    26    27    1
    12    27    28    1
    13    28    24    1
    14    24     1    1
    15     1     2   ar
    16     2     3   ar
    17     3     4   ar
    18     4     7    1
    19     7     8    2
    20     7     9    1
    21     9    10   ar
    22    10    11   ar
    23    11    12   ar
    24    12    13   ar
    25    13    14   ar
    26    14    15   ar
    27    15    16   ar
    28    16    17   ar
    29    17    18    1
    30    18    19    1
    31    19    20    1
    32    20    21    1
    33    21    22    1
    34    22    23    1
    35     4     5   ar
    36     5     6   ar
    37    28    29    1
    38    29    30    1
    39    35    36   ar
    40    36    31   ar
    41    30    25    1
    42     6     1   ar
    43    17     9   ar
    44    23    18    1
    45    16    11   ar
    46    40    41    1
@<TRIPOS>MOLECULE
*****
 41 46 0 0 0
SMALL
GASTEIGER

@<TRIPOS>ATOM
      1 C         143.9230  141.7647  161.9693 C.ar    1  UNL1       -0.0061
      2 C         142.9457  140.6666  161.6711 C.ar    1  UNL1       -0.0028
      3 C         142.4676  139.7682  162.7732 C.ar    1  UNL1        0.0030
      4 C         142.9669  139.9681  164.1735 C.ar    1  UNL1        0.0420
      5 C         143.9443  141.0662  164.4717 C.ar    1  UNL1        0.0030
      6 C         144.4223  141.9645  163.3696 C.ar    1  UNL1       -0.0028
      7 C         142.4889  139.0698  165.2755 C.2     1  UNL1        0.2294
      8 O         142.3054  137.6030  165.0211 O.2     1  UNL1       -0.2833
      9 C         142.1944  139.6383  166.6320 C.ar    1  UNL1        0.1833
     10 N         142.9309  139.3213  167.8997 N.ar    1  UNL1       -0.2238
     11 C         142.3034  140.1107  169.0102 C.ar    1  UNL1        0.0988
     12 C         142.6106  140.2006  170.4756 C.ar    1  UNL1        0.0206
     13 C         141.7934  141.0954  171.3596 C.ar    1  UNL1        0.0016
     14 C         140.6690  141.9003  170.7782 C.ar    1  UNL1        0.0016
     15 C         140.3619  141.8104  169.3128 C.ar    1  UNL1        0.0188
     16 C         141.1791  140.9156  168.4288 C.ar    1  UNL1        0.0789
     17 N         141.1117  140.6236  166.9590 N.ar    1  UNL1       -0.3106
     18 C         140.1334  141.2135  165.9869 C.3     1  UNL1        0.0920
     19 C         140.2870  142.6365  165.5384 C.3     1  UNL1        0.0547
     20 C         139.3087  143.2263  164.5663 C.3     1  UNL1        0.1441
     21 O         138.1767  142.3930  164.0426 O.3     1  UNL1       -0.3536
     22 C         138.0230  140.9699  164.4911 C.3     1  UNL1        0.1441
     23 C         139.0014  140.3801  165.4632 C.3     1  UNL1        0.0547
     24 C         144.4010  142.6631  160.8673 C.3     1  UNL1        0.0991
     25 C         141.4422  144.4930  158.0131 C.3     1  UNL1        0.0251
     26 C         142.6479  143.7739  157.4846 C.3     1  UNL1        0.0217
     27 C         143.6342  143.1639  158.4360 C.3     1  UNL1        0.0727
     28 N         143.4147  143.2731  159.9159 N.3     1  UNL1       -0.2689
     29 C         142.2091  143.9921  160.4443 C.3     1  UNL1        0.0727
     30 C         141.2228  144.6021  159.4929 C.3     1  UNL1        0.0217
     31 C         139.0405  147.1395  156.2872 C.ar    1  UNL1        0.0500
     32 C         138.4833  146.3230  155.1589 C.ar    1  UNL1        0.0147
     33 C         138.9124  144.8966  154.9820 C.ar    1  UNL1        0.0009
     34 C         139.8987  144.2867  155.9334 C.ar    1  UNL1       -0.0042
     35 C         140.4559  145.1030  157.0617 C.ar    1  UNL1       -0.0212
     36 C         140.0268  146.5295  157.2386 C.ar    1  UNL1        0.0104
     37 C         138.5058  151.0090  155.5866 C.3     1  UNL1        0.0949
     38 C         138.9349  149.5826  155.4097 C.2     1  UNL1        0.2266
     39 O         139.6874  149.1730  154.1785 O.2     1  UNL1       -0.2748
     40 N         138.6115  148.5658  156.4640 N.am    1  UNL1       -0.2839
     41 H         138.1175  148.8347  157.2721 H       1  UNL1        0.1549
@<TRIPOS>BOND
     1    37    38    1
     2    38    39    2
     3    38    40   am
     4    40    31    1
     5    31    32   ar
     6    32    33   ar
     7    33    34   ar
     8    34    35   ar
     9    35    25    1
    10    25    26    1
    11    26    27    1
    12    27    28    1
    13    28    24    1
    14    24     1    1
    15     1     2   ar
    16     2     3   ar
    17     3     4   ar
    18     4     7    1
    19     7     8    2
    20     7     9    1
    21     9    10   ar
    22    10    11   ar
    23    11    12   ar
    24    12    13   ar
    25    13    14   ar
    26    14    15   ar
    27    15    16   ar
    28    16    17   ar
    29    17    18    1
    30    18    19    1
    31    19    20    1
    32    20    21    1
    33    21    22    1
    34    22    23    1
    35     4     5   ar
    36     5     6   ar
    37    28    29    1
    38    29    30    1
    39    35    36   ar
    40    36    31   ar
    41    30    25    1
    42     6     1   ar
    43    17     9   ar
    44    23    18    1
    45    16    11   ar
    46    40    41    1
@<TRIPOS>MOLECULE
*****
 41 46 0 0 0
SMALL
GASTEIGER

@<TRIPOS>ATOM
      1 C         138.7148  141.6995  160.0838 C.ar    1  UNL1       -0.0061
      2 C         139.8873  142.6313  160.0008 C.ar    1  UNL1       -0.0028
      3 C         140.4633  143.2252  161.2521 C.ar    1  UNL1        0.0030
      4 C         139.8668  142.8873  162.5862 C.ar    1  UNL1        0.0420
      5 C         138.6942  141.9555  162.6691 C.ar    1  UNL1        0.0030
      6 C         138.1182  141.3616  161.4179 C.ar    1  UNL1       -0.0028
      7 C         140.4427  143.4812  163.8374 C.2     1  UNL1        0.2294
      8 O         140.7482  144.9484  163.8994 O.2     1  UNL1       -0.2833
      9 C         140.7132  142.6079  165.0265 C.ar    1  UNL1        0.1833
     10 N         139.8428  142.4778  166.2412 N.ar    1  UNL1       -0.2238
     11 C         140.4932  141.5008  167.1752 C.ar    1  UNL1        0.0988
     12 C         140.0912  140.9814  168.5237 C.ar    1  UNL1        0.0206
     13 C         140.9617  139.9881  169.2348 C.ar    1  UNL1        0.0016
     14 C         142.2342  139.5143  168.5974 C.ar    1  UNL1        0.0016
     15 C         142.6362  140.0337  167.2489 C.ar    1  UNL1        0.0188
     16 C         141.7657  141.0270  166.5378 C.ar    1  UNL1        0.0789
     17 N         141.9016  141.7112  165.2099 N.ar    1  UNL1       -0.3106
     18 C         143.0282  141.5304  164.2362 C.3     1  UNL1        0.0920
     19 C         142.8482  140.6489  163.0361 C.3     1  UNL1        0.0547
     20 C         143.9749  140.4681  162.0624 C.3     1  UNL1        0.1441
     21 O         145.2816  141.1689  162.2888 O.3     1  UNL1       -0.3536
     22 C         145.4617  142.0506  163.4889 C.3     1  UNL1        0.1441
     23 C         144.3350  142.2313  164.4626 C.3     1  UNL1        0.0547
     24 C         138.1387  141.1056  158.8325 C.3     1  UNL1        0.0991
     25 C         140.3720  137.8702  156.6429 C.3     1  UNL1        0.0251
     26 C         140.5223  138.0115  158.1287 C.3     1  UNL1        0.0217
     27 C         139.7778  139.0900  158.8586 C.3     1  UNL1        0.0727
     28 N         138.8832  140.0271  158.1026 N.3     1  UNL1       -0.2689
     29 C         138.7329  139.8858  156.6169 C.3     1  UNL1        0.0727
     30 C         139.4773  138.8073  155.8870 C.3     1  UNL1        0.0217
     31 C         143.0259  135.0315  155.8374 C.ar    1  UNL1        0.0500
     32 C         142.6052  134.6347  154.4532 C.ar    1  UNL1        0.0147
     33 C         141.4402  135.3164  153.7991 C.ar    1  UNL1        0.0009
     34 C         140.6958  136.3949  154.5289 C.ar    1  UNL1       -0.0042
     35 C         141.1164  136.7917  155.9130 C.ar    1  UNL1       -0.0212
     36 C         142.2814  136.1100  156.5672 C.ar    1  UNL1        0.0104
     37 C         145.1632  132.3497  157.8348 C.3     1  UNL1        0.0949
     38 C         143.9981  133.0314  157.1806 C.2     1  UNL1        0.2266
     39 O         142.6404  132.3948  157.2155 O.2     1  UNL1       -0.2748
     40 N         144.1909  134.3497  156.4915 N.am    1  UNL1       -0.2839
     41 H         145.0820  134.7676  156.4686 H       1  UNL1        0.1549
@<TRIPOS>BOND
     1    37    38    1
     2    38    39    2
     3    38    40   am
     4    40    31    1
     5    31    32   ar
     6    32    33   ar
     7    33    34   ar
     8    34    35   ar
     9    35    25    1
    10    25    26    1
    11    26    27    1
    12    27    28    1
    13    28    24    1
    14    24     1    1
    15     1     2   ar
    16     2     3   ar
    17     3     4   ar
    18     4     7    1
    19     7     8    2
    20     7     9    1
    21     9    10   ar
    22    10    11   ar
    23    11    12   ar
    24    12    13   ar
    25    13    14   ar
    26    14    15   ar
    27    15    16   ar
    28    16    17   ar
    29    17    18    1
    30    18    19    1
    31    19    20    1
    32    20    21    1
    33    21    22    1
    34    22    23    1
    35     4     5   ar
    36     5     6   ar
    37    28    29    1
    38    29    30    1
    39    35    36   ar
    40    36    31   ar
    41    30    25    1
    42     6     1   ar
    43    17     9   ar
    44    23    18    1
    45    16    11   ar
    46    40    41    1
@<TRIPOS>MOLECULE
*****
 41 46 0 0 0
SMALL
GASTEIGER

@<TRIPOS>ATOM
      1 C         142.0642  137.9718  158.6006 C.ar    1  UNL1       -0.0061
      2 C         142.9846  137.7417  159.7624 C.ar    1  UNL1       -0.0028
      3 C         142.4934  137.9592  161.1629 C.ar    1  UNL1        0.0030
      4 C         141.0818  138.4068  161.4016 C.ar    1  UNL1        0.0420
      5 C         140.1614  138.6369  160.2397 C.ar    1  UNL1        0.0030
      6 C         140.6526  138.4194  158.8392 C.ar    1  UNL1       -0.0028
      7 C         140.5906  138.6243  162.8021 C.2     1  UNL1        0.2294
      8 O         140.5112  137.4701  163.7567 O.2     1  UNL1       -0.2833
      9 C         140.1788  139.9961  163.2479 C.ar    1  UNL1        0.1833
     10 N         138.7876  140.4253  163.6087 N.ar    1  UNL1       -0.2238
     11 C         138.8349  141.8740  163.9950 C.ar    1  UNL1        0.0988
     12 C         137.7680  142.8288  164.4421 C.ar    1  UNL1        0.0206
     13 C         138.1217  144.2498  164.7671 C.ar    1  UNL1        0.0016
     14 C         139.5422  144.7159  164.6450 C.ar    1  UNL1        0.0016
     15 C         140.6090  143.7611  164.1979 C.ar    1  UNL1        0.0188
     16 C         140.2554  142.3401  163.8728 C.ar    1  UNL1        0.0789
     17 N         141.0860  141.1795  163.4111 N.ar    1  UNL1       -0.3106
     18 C         142.5642  141.1989  163.1572 C.3     1  UNL1        0.0920
     19 C         143.0991  141.7875  161.8855 C.3     1  UNL1        0.0547
     20 C         144.5773  141.8069  161.6316 C.3     1  UNL1        0.1441
     21 O         145.5207  141.2378  162.6495 O.3     1  UNL1       -0.3536
     22 C         144.9858  140.6492  163.9213 C.3     1  UNL1        0.1441
     23 C         143.5076  140.6297  164.1752 C.3     1  UNL1        0.0547
     24 C         142.5554  137.7543  157.2000 C.3     1  UNL1        0.0991
     25 C         142.1877  133.6956  155.2916 C.3     1  UNL1        0.0251
     26 C         143.2719  133.9572  156.2947 C.3     1  UNL1        0.0217
     27 C         143.3944  135.3101  156.9309 C.3     1  UNL1        0.0727
     28 N         142.4328  136.4014  156.5639 N.3     1  UNL1       -0.2689
     29 C         141.3487  136.1397  155.5608 C.3     1  UNL1        0.0727
     30 C         141.2261  134.7868  154.9247 C.3     1  UNL1        0.0217
     31 C         140.8067  130.0846  154.3947 C.ar    1  UNL1        0.0500
     32 C         141.8199  129.6369  153.3833 C.ar    1  UNL1        0.0147
     33 C         142.9556  130.5420  153.0080 C.ar    1  UNL1        0.0009
     34 C         143.0782  131.8949  153.6441 C.ar    1  UNL1       -0.0042
     35 C         142.0651  132.3427  154.6555 C.ar    1  UNL1       -0.0212
     36 C         140.9293  131.4375  155.0309 C.ar    1  UNL1        0.0104
     37 C         138.7718  127.1187  156.0717 C.3     1  UNL1        0.0949
     38 C         139.9076  128.0238  155.6965 C.2     1  UNL1        0.2266
     39 O         141.2800  127.7732  156.2476 O.2     1  UNL1       -0.2748
     40 N         139.6710  129.1795  154.7700 N.am    1  UNL1       -0.2839
     41 H         138.7703  129.3440  154.4083 H       1  UNL1        0.1549
@<TRIPOS>BOND
     1    37    38    1
     2    38    39    2
     3    38    40   am
     4    40    31    1
     5    31    32   ar
     6    32    33   ar
     7    33    34   ar
     8    34    35   ar
     9    35    25    1
    10    25    26    1
    11    26    27    1
    12    27    28    1
    13    28    24    1
    14    24     1    1
    15     1     2   ar
    16     2     3   ar
    17     3     4   ar
    18     4     7    1
    19     7     8    2
    20     7     9    1
    21     9    10   ar
    22    10    11   ar
    23    11    12   ar
    24    12    13   ar
    25    13    14   ar
    26    14    15   ar
    27    15    16   ar
    28    16    17   ar
    29    17    18    1
    30    18    19    1
    31    19    20    1
    32    20    21    1
    33    21    22    1
    34    22    23    1
    35     4     5   ar
    36     5     6   ar
    37    28    29    1
    38    29    30    1
    39    35    36   ar
    40    36    31   ar
    41    30    25    1
    42     6     1   ar
    43    17     9   ar
    44    23    18    1
    45    16    11   ar
    46    40    41    1
@<TRIPOS>MOLECULE
*****
 41 46 0 0 0
SMALL
GASTEIGER

@<TRIPOS>ATOM
      1 C         143.2614  141.5111  159.2070 C.ar    1  UNL1       -0.0061
      2 C         144.0705  141.6630  160.4609 C.ar    1  UNL1       -0.0028
      3 C         143.4166  142.1458  161.7216 C.ar    1  UNL1        0.0030
      4 C         141.9535  142.4766  161.7284 C.ar    1  UNL1        0.0420
      5 C         141.1444  142.3247  160.4744 C.ar    1  UNL1        0.0030
      6 C         141.7984  141.8419  159.2138 C.ar    1  UNL1       -0.0028
      7 C         141.2996  142.9594  162.9890 C.2     1  UNL1        0.2294
      8 O         140.3019  144.0782  162.9354 O.2     1  UNL1       -0.2833
      9 C         141.6433  142.3234  164.3033 C.ar    1  UNL1        0.1833
     10 N         142.0949  143.0428  165.5396 N.ar    1  UNL1       -0.2238
     11 C         142.3265  142.0204  166.6125 C.ar    1  UNL1        0.0988
     12 C         142.7784  142.1453  168.0373 C.ar    1  UNL1        0.0206
     13 C         142.9219  140.9188  168.8888 C.ar    1  UNL1        0.0016
     14 C         142.6135  139.5675  168.3155 C.ar    1  UNL1        0.0016
     15 C         142.1616  139.4425  166.8907 C.ar    1  UNL1        0.0188
     16 C         142.0181  140.6690  166.0392 C.ar    1  UNL1        0.0789
     17 N         141.5959  140.8563  164.6120 N.ar    1  UNL1       -0.3106
     18 C         141.1964  139.7676  163.6607 C.3     1  UNL1        0.0920
     19 C         139.7458  139.5206  163.3699 C.3     1  UNL1        0.0547
     20 C         139.3463  138.4318  162.4186 C.3     1  UNL1        0.1441
     21 O         140.3974  137.5900  161.7580 O.3     1  UNL1       -0.3536
     22 C         141.8481  137.8370  162.0487 C.3     1  UNL1        0.1441
     23 C         142.2476  138.9257  163.0000 C.3     1  UNL1        0.0547
     24 C         143.9154  141.0283  157.9463 C.3     1  UNL1        0.0991
     25 C         143.1051  136.8648  156.4434 C.3     1  UNL1        0.0251
     26 C         143.7973  137.8597  155.5596 C.3     1  UNL1        0.0217
     27 C         144.0674  139.2476  156.0606 C.3     1  UNL1        0.0727
     28 N         143.6453  139.6405  157.4453 N.3     1  UNL1       -0.2689
     29 C         142.9532  138.6455  158.3291 C.3     1  UNL1        0.0727
     30 C         142.6831  137.2577  157.8281 C.3     1  UNL1        0.0217
     31 C         142.7928  132.9098  156.3401 C.ar    1  UNL1        0.0500
     32 C         142.2949  132.7013  154.9405 C.ar    1  UNL1        0.0147
     33 C         142.0671  133.8805  154.0420 C.ar    1  UNL1        0.0009
     34 C         142.3372  135.2684  154.5430 C.ar    1  UNL1       -0.0042
     35 C         142.8351  135.4769  155.9424 C.ar    1  UNL1       -0.0212
     36 C         143.0629  134.2976  156.8410 C.ar    1  UNL1        0.0104
     37 C         144.5774  129.8555  158.1393 C.3     1  UNL1        0.0949
     38 C         144.3496  131.0349  157.2407 C.2     1  UNL1        0.2266
     39 O         145.4507  131.5185  156.3443 O.2     1  UNL1       -0.2748
     40 N         143.0206  131.7305  157.2386 N.am    1  UNL1       -0.2839
     41 H         142.2979  131.4131  157.8269 H       1  UNL1        0.1549
@<TRIPOS>BOND
     1    37    38    1
     2    38    39    2
     3    38    40   am
     4    40    31    1
     5    31    32   ar
     6    32    33   ar
     7    33    34   ar
     8    34    35   ar
     9    35    25    1
    10    25    26    1
    11    26    27    1
    12    27    28    1
    13    28    24    1
    14    24     1    1
    15     1     2   ar
    16     2     3   ar
    17     3     4   ar
    18     4     7    1
    19     7     8    2
    20     7     9    1
    21     9    10   ar
    22    10    11   ar
    23    11    12   ar
    24    12    13   ar
    25    13    14   ar
    26    14    15   ar
    27    15    16   ar
    28    16    17   ar
    29    17    18    1
    30    18    19    1
    31    19    20    1
    32    20    21    1
    33    21    22    1
    34    22    23    1
    35     4     5   ar
    36     5     6   ar
    37    28    29    1
    38    29    30    1
    39    35    36   ar
    40    36    31   ar
    41    30    25    1
    42     6     1   ar
    43    17     9   ar
    44    23    18    1
    45    16    11   ar
    46    40    41    1
@<TRIPOS>MOLECULE
*****
 41 46 0 0 0
SMALL
GASTEIGER

@<TRIPOS>ATOM
      1 C         141.8979  138.1473  158.5640 C.ar    1  UNL1       -0.0061
      2 C         140.4293  138.4479  158.5108 C.ar    1  UNL1       -0.0028
      3 C         139.6439  138.5783  159.7821 C.ar    1  UNL1        0.0030
      4 C         140.3271  138.4082  161.1066 C.ar    1  UNL1        0.0420
      5 C         141.7958  138.1076  161.1598 C.ar    1  UNL1        0.0030
      6 C         142.5811  137.9771  159.8885 C.ar    1  UNL1       -0.0028
      7 C         139.5418  138.5387  162.3779 C.2     1  UNL1        0.2294
      8 O         138.9330  137.3230  163.0114 O.2     1  UNL1       -0.2833
      9 C         139.3652  139.8849  163.0156 C.ar    1  UNL1        0.1833
     10 N         138.1828  140.7923  162.8465 N.ar    1  UNL1       -0.2238
     11 C         138.4269  142.0282  163.6607 C.ar    1  UNL1        0.0988
     12 C         137.6073  143.2658  163.8768 C.ar    1  UNL1        0.0206
     13 C         138.1210  144.3598  164.7652 C.ar    1  UNL1        0.0016
     14 C         139.4542  144.2162  165.4375 C.ar    1  UNL1        0.0016
     15 C         140.2738  142.9787  165.2214 C.ar    1  UNL1        0.0188
     16 C         139.7601  141.8847  164.3330 C.ar    1  UNL1        0.0789
     17 N         140.3400  140.5600  163.9342 N.ar    1  UNL1       -0.3106
     18 C         141.6625  140.0075  164.3766 C.3     1  UNL1        0.0920
     19 C         142.9334  140.5360  163.7804 C.3     1  UNL1        0.0547
     20 C         144.2559  139.9835  164.2227 C.3     1  UNL1        0.1441
     21 O         144.3076  138.9024  165.2613 O.3     1  UNL1       -0.3536
     22 C         143.0367  138.3738  165.8575 C.3     1  UNL1        0.1441
     23 C         141.7142  138.9263  165.4152 C.3     1  UNL1        0.0547
     24 C         142.6833  138.0168  157.2927 C.3     1  UNL1        0.0991
     25 C         143.0885  134.0022  155.3004 C.3     1  UNL1        0.0251
     26 C         142.6019  135.1837  154.5146 C.3     1  UNL1        0.0217
     27 C         142.4669  136.5219  155.1787 C.3     1  UNL1        0.0727
     28 N         142.8184  136.6786  156.6286 N.3     1  UNL1       -0.2689
     29 C         143.3050  135.4971  157.4143 C.3     1  UNL1        0.0727
     30 C         143.4400  134.1589  156.7502 C.3     1  UNL1        0.0217
     31 C         144.2757  130.2900  154.5520 C.ar    1  UNL1        0.0500
     32 C         143.4938  129.9877  153.3081 C.ar    1  UNL1        0.0147
     33 C         142.5768  131.0235  152.7284 C.ar    1  UNL1        0.0009
     34 C         142.4417  132.3617  153.3925 C.ar    1  UNL1       -0.0042
     35 C         143.2236  132.6640  154.6363 C.ar    1  UNL1       -0.0212
     36 C         144.1407  131.6282  155.2161 C.ar    1  UNL1        0.0104
     37 C         145.5794  127.2070  156.6841 C.3     1  UNL1        0.0949
     38 C         144.6623  128.2429  156.1043 C.2     1  UNL1        0.2266
     39 O         143.2149  128.2674  156.4972 O.2     1  UNL1       -0.2748
     40 N         145.1927  129.2541  155.1317 N.am    1  UNL1       -0.2839
     41 H         146.1427  129.2380  154.8739 H       1  UNL1        0.1549
@<TRIPOS>BOND
     1    37    38    1
     2    38    39    2
     3    38    40   am
     4    40    31    1
     5    31    32   ar
     6    32    33   ar
     7    33    34   ar
     8    34    35   ar
     9    35    25    1
    10    25    26    1
    11    26    27    1
    12    27    28    1
    13    28    24    1
    14    24     1    1
    15     1     2   ar
    16     2     3   ar
    17     3     4   ar
    18     4     7    1
    19     7     8    2
    20     7     9    1
    21     9    10   ar
    22    10    11   ar
    23    11    12   ar
    24    12    13   ar
    25    13    14   ar
    26    14    15   ar
    27    15    16   ar
    28    16    17   ar
    29    17    18    1
    30    18    19    1
    31    19    20    1
    32    20    21    1
    33    21    22    1
    34    22    23    1
    35     4     5   ar
    36     5     6   ar
    37    28    29    1
    38    29    30    1
    39    35    36   ar
    40    36    31   ar
    41    30    25    1
    42     6     1   ar
    43    17     9   ar
    44    23    18    1
    45    16    11   ar
    46    40    41    1
@<TRIPOS>MOLECULE
*****
 41 46 0 0 0
SMALL
GASTEIGER

@<TRIPOS>ATOM
      1 C         142.4382  141.8615  161.5397 C.ar    1  UNL1       -0.0061
      2 C         142.9908  142.1119  162.9115 C.ar    1  UNL1       -0.0028
      3 C         142.0611  142.3890  164.0556 C.ar    1  UNL1        0.0030
      4 C         140.5787  142.4157  163.8278 C.ar    1  UNL1        0.0420
      5 C         140.0261  142.1652  162.4559 C.ar    1  UNL1        0.0030
      6 C         140.9558  141.8881  161.3119 C.ar    1  UNL1       -0.0028
      7 C         139.6490  142.6928  164.9718 C.2     1  UNL1        0.2294
      8 O         138.3202  143.3409  164.7182 O.2     1  UNL1       -0.2833
      9 C         140.0480  142.3218  166.3693 C.ar    1  UNL1        0.1833
     10 N         140.2229  143.2708  167.5177 N.ar    1  UNL1       -0.2238
     11 C         140.6251  142.4722  168.7220 C.ar    1  UNL1        0.0988
     12 C         140.9338  142.8723  170.1343 C.ar    1  UNL1        0.0206
     13 C         141.3162  141.8296  171.1426 C.ar    1  UNL1        0.0016
     14 C         141.3900  140.3870  170.7385 C.ar    1  UNL1        0.0016
     15 C         141.0813  139.9869  169.3262 C.ar    1  UNL1        0.0188
     16 C         140.6989  141.0295  168.3180 C.ar    1  UNL1        0.0789
     17 N         140.3422  140.9366  166.8640 N.ar    1  UNL1       -0.3106
     18 C         140.2890  139.6791  166.0479 C.3     1  UNL1        0.0920
     19 C         141.5549  139.0776  165.5137 C.3     1  UNL1        0.0547
     20 C         141.5018  137.8202  164.6976 C.3     1  UNL1        0.1441
     21 O         140.1826  137.1642  164.4156 O.3     1  UNL1       -0.3536
     22 C         138.9166  137.7657  164.9498 C.3     1  UNL1        0.1441
     23 C         138.9697  139.0232  165.7659 C.3     1  UNL1        0.0547
     24 C         143.3679  141.5844  160.3956 C.3     1  UNL1        0.0991
     25 C         142.6283  138.0590  157.6985 C.3     1  UNL1        0.0251
     26 C         142.7825  137.8533  159.1764 C.3     1  UNL1        0.0217
     27 C         143.0290  139.0285  160.0754 C.3     1  UNL1        0.0727
     28 N         143.1214  140.4093  159.4966 N.3     1  UNL1       -0.2689
     29 C         142.9672  140.6149  158.0188 C.3     1  UNL1        0.0727
     30 C         142.7206  139.4397  157.1198 C.3     1  UNL1        0.0217
     31 C         143.1562  134.6144  155.7994 C.ar    1  UNL1        0.0500
     32 C         141.8886  134.5336  155.0014 C.ar    1  UNL1        0.0147
     33 C         140.8677  135.6279  155.1023 C.ar    1  UNL1        0.0009
     34 C         141.1143  136.8030  156.0014 C.ar    1  UNL1       -0.0042
     35 C         142.3817  136.8839  156.7994 C.ar    1  UNL1       -0.0212
     36 C         143.4027  135.7896  156.6985 C.ar    1  UNL1        0.0104
     37 C         144.9707  131.1207  156.3009 C.3     1  UNL1        0.0949
     38 C         143.9497  132.2150  156.4019 C.2     1  UNL1        0.2266
     39 O         142.7014  132.0041  157.2063 O.2     1  UNL1       -0.2748
     40 N         144.1771  133.5202  155.6985 N.am    1  UNL1       -0.2839
     41 H         144.9964  133.6585  155.1705 H       1  UNL1        0.1549
@<TRIPOS>BOND
     1    37    38    1
     2    38    39    2
     3    38    40   am
     4    40    31    1
     5    31    32   ar
     6    32    33   ar
     7    33    34   ar
     8    34    35   ar
     9    35    25    1
    10    25    26    1
    11    26    27    1
    12    27    28    1
    13    28    24    1
    14    24     1    1
    15     1     2   ar
    16     2     3   ar
    17     3     4   ar
    18     4     7    1
    19     7     8    2
    20     7     9    1
    21     9    10   ar
    22    10    11   ar
    23    11    12   ar
    24    12    13   ar
    25    13    14   ar
    26    14    15   ar
    27    15    16   ar
    28    16    17   ar
    29    17    18    1
    30    18    19    1
    31    19    20    1
    32    20    21    1
    33    21    22    1
    34    22    23    1
    35     4     5   ar
    36     5     6   ar
    37    28    29    1
    38    29    30    1
    39    35    36   ar
    40    36    31   ar
    41    30    25    1
    42     6     1   ar
    43    17     9   ar
    44    23    18    1
    45    16    11   ar
    46    40    41    1
@<TRIPOS>MOLECULE
*****
 41 46 0 0 0
SMALL
GASTEIGER

@<TRIPOS>ATOM
      1 C         139.6063  138.3971  162.3206 C.ar    1  UNL1       -0.0061
      2 C         138.4860  139.3388  162.6492 C.ar    1  UNL1       -0.0028
      3 C         138.0741  139.5454  164.0767 C.ar    1  UNL1        0.0030
      4 C         138.7826  138.8102  165.1756 C.ar    1  UNL1        0.0420
      5 C         139.9030  137.8684  164.8469 C.ar    1  UNL1        0.0030
      6 C         140.3148  137.6619  163.4194 C.ar    1  UNL1       -0.0028
      7 C         138.3708  139.0168  166.6030 C.2     1  UNL1        0.2294
      8 O         137.0895  138.4220  167.1075 O.2     1  UNL1       -0.2833
      9 C         139.2403  139.8181  167.5260 C.ar    1  UNL1        0.1833
     10 N         139.3811  139.6121  169.0051 N.ar    1  UNL1       -0.2238
     11 C         140.3494  140.6328  169.5252 C.ar    1  UNL1        0.0988
     12 C         140.8736  140.9083  170.9034 C.ar    1  UNL1        0.0206
     13 C         141.8554  142.0206  171.1238 C.ar    1  UNL1        0.0016
     14 C         142.3131  142.8575  169.9662 C.ar    1  UNL1        0.0016
     15 C         141.7889  142.5820  168.5880 C.ar    1  UNL1        0.0188
     16 C         140.8071  141.4696  168.3676 C.ar    1  UNL1        0.0789
     17 N         140.1216  140.9661  167.1320 N.ar    1  UNL1       -0.3106
     18 C         140.2882  141.5144  165.7458 C.3     1  UNL1        0.0920
     19 C         139.3100  142.5195  165.2141 C.3     1  UNL1        0.0547
     20 C         139.4766  143.0678  163.8279 C.3     1  UNL1        0.1441
     21 O         140.6216  142.6109  162.9733 O.3     1  UNL1       -0.3536
     22 C         141.5999  141.6058  163.5049 C.3     1  UNL1        0.1441
     23 C         141.4333  141.0575  164.8911 C.3     1  UNL1        0.0547
     24 C         140.0181  138.1905  160.8930 C.3     1  UNL1        0.0991
     25 C         140.3155  141.7104  158.1052 C.3     1  UNL1        0.0251
     26 C         141.4037  141.4511  159.1046 C.3     1  UNL1        0.0217
     27 C         141.3046  140.2778  160.0339 C.3     1  UNL1        0.0727
     28 N         140.1172  139.3638  159.9638 N.3     1  UNL1       -0.2689
     29 C         139.0291  139.6230  158.9644 C.3     1  UNL1        0.0727
     30 C         139.1283  140.7963  158.0351 C.3     1  UNL1        0.0217
     31 C         141.8521  144.4900  155.7255 C.ar    1  UNL1        0.0500
     32 C         140.6129  145.2303  155.3174 C.ar    1  UNL1        0.0147
     33 C         139.2747  144.7973  155.8386 C.ar    1  UNL1        0.0009
     34 C         139.1755  143.6240  156.7678 C.ar    1  UNL1       -0.0042
     35 C         140.4146  142.8837  157.1760 C.ar    1  UNL1       -0.0212
     36 C         141.7529  143.3167  156.6548 C.ar    1  UNL1        0.0104
     37 C         145.0992  144.7119  153.4546 C.3     1  UNL1        0.0949
     38 C         143.7609  144.2789  153.9757 C.2     1  UNL1        0.2266
     39 O         142.9933  143.2017  153.2683 O.2     1  UNL1       -0.2748
     40 N         143.1903  144.9230  155.2044 N.am    1  UNL1       -0.2839
     41 H         143.6941  145.6300  155.6687 H       1  UNL1        0.1549
@<TRIPOS>BOND
     1    37    38    1
     2    38    39    2
     3    38    40   am
     4    40    31    1
     5    31    32   ar
     6    32    33   ar
     7    33    34   ar
     8    34    35   ar
     9    35    25    1
    10    25    26    1
    11    26    27    1
    12    27    28    1
    13    28    24    1
    14    24     1    1
    15     1     2   ar
    16     2     3   ar
    17     3     4   ar
    18     4     7    1
    19     7     8    2
    20     7     9    1
    21     9    10   ar
    22    10    11   ar
    23    11    12   ar
    24    12    13   ar
    25    13    14   ar
    26    14    15   ar
    27    15    16   ar
    28    16    17   ar
    29    17    18    1
    30    18    19    1
    31    19    20    1
    32    20    21    1
    33    21    22    1
    34    22    23    1
    35     4     5   ar
    36     5     6   ar
    37    28    29    1
    38    29    30    1
    39    35    36   ar
    40    36    31   ar
    41    30    25    1
    42     6     1   ar
    43    17     9   ar
    44    23    18    1
    45    16    11   ar
    46    40    41    1
