@<TRIPOS>MOLECULE
*****
 38 43 0 0 0
SMALL
GASTEIGER

@<TRIPOS>ATOM
      1 N         141.6831  144.8975  162.3226 N.pl3   1  UNL1       -0.2825
      2 H         142.0613  145.7249  162.6989 H       1  UNL1        0.1551
      3 C         143.8802  142.6947  159.0714 C.ar    1  UNL1        0.0847
      4 C         142.6393  143.4715  158.7446 C.ar    1  UNL1        0.0205
      5 C         141.9070  144.2057  159.8283 C.ar    1  UNL1        0.0162
      6 C         142.4155  144.1632  161.2388 C.ar    1  UNL1        0.0506
      7 C         143.6563  143.3863  161.5656 C.ar    1  UNL1        0.0162
      8 C         144.3887  142.6521  160.4819 C.ar    1  UNL1        0.0205
      9 C         146.1731  141.4318  156.2055 C.ar    1  UNL1        0.1851
     10 N         145.3062  140.2292  156.4344 N.ar    1  UNL1       -0.2031
     11 C         144.3417  140.5559  157.5358 C.ar    1  UNL1        0.2015
     12 N         144.6126  141.9604  157.9876 N.ar    1  UNL1       -0.2080
     13 N         145.7444  142.5017  157.1654 N.ar    1  UNL1       -0.1441
     14 C         150.5813  141.8830  152.1602 C.3     1  UNL1        0.0521
     15 C         149.4792  141.7702  153.1715 C.ar    1  UNL1        0.0594
     16 C         149.7893  141.8849  154.6346 C.ar    1  UNL1        0.0148
     17 C         148.6872  141.7721  155.6459 C.ar    1  UNL1        0.0059
     18 C         147.2751  141.5446  155.1942 C.ar    1  UNL1        0.0567
     19 C         146.9651  141.4299  153.7311 C.ar    1  UNL1        0.1015
     20 N         148.0671  141.5427  152.7198 N.ar    1  UNL1       -0.2480
     21 C         140.3746  144.3709  162.8332 C.ar    1  UNL1        0.2207
     22 N         139.0862  144.9681  162.3502 N.ar    1  UNL1       -0.2120
     23 C         137.7777  144.4416  162.8608 C.ar    1  UNL1        0.1034
     24 C         137.7576  143.3179  163.8542 C.ar    1  UNL1        0.0399
     25 C         139.0461  142.7208  164.3371 C.ar    1  UNL1        0.0858
     26 N         140.3546  143.2473  163.8266 N.ar    1  UNL1       -0.2135
     27 C         139.0261  141.5971  165.3305 C.ar    1  UNL1        0.0190
     28 C         138.2522  140.3470  165.0333 C.ar    1  UNL1        0.0016
     29 C         138.2322  139.2233  166.0268 C.ar    1  UNL1        0.0013
     30 C         138.9861  139.3497  167.3174 C.ar    1  UNL1        0.0145
     31 C         139.7600  140.5998  167.6146 C.ar    1  UNL1        0.0480
     32 C         139.7800  141.7235  166.6211 C.ar    1  UNL1        0.0160
     33 N         140.5139  140.7262  168.9052 N.pl3   1  UNL1       -0.3028
     34 C         141.7157  139.8653  169.1591 C.3     1  UNL1        0.1231
     35 C         142.4696  139.9917  170.4497 C.3     1  UNL1        0.1636
     36 O         142.0217  140.9790  171.4864 O.3     1  UNL1       -0.3501
     37 C         140.8199  141.8399  171.2324 C.3     1  UNL1        0.1636
     38 C         140.0660  141.7135  169.9418 C.3     1  UNL1        0.1231
@<TRIPOS>BOND
     1    14    15    1
     2    15    16   ar
     3    16    17   ar
     4    17    18   ar
     5    18     9    1
     6     9    10   ar
     7    10    11   ar
     8    11    12   ar
     9    12     3    1
    10     3     4   ar
    11     4     5   ar
    12     5     6   ar
    13     6     1    1
    14     1    21    1
    15    21    22   ar
    16    22    23   ar
    17    23    24   ar
    18    24    25   ar
    19    25    27    1
    20    27    28   ar
    21    28    29   ar
    22    29    30   ar
    23    30    31   ar
    24    31    33    1
    25    33    34    1
    26    34    35    1
    27    35    36    1
    28    36    37    1
    29    37    38    1
    30    31    32   ar
    31    25    26   ar
    32     6     7   ar
    33     7     8   ar
    34    12    13   ar
    35    18    19   ar
    36    19    20   ar
    37    20    15   ar
    38    13     9   ar
    39     8     3   ar
    40    26    21   ar
    41    32    27   ar
    42    38    33    1
    43     1     2    1
@<TRIPOS>MOLECULE
*****
 38 43 0 0 0
SMALL
GASTEIGER

@<TRIPOS>ATOM
      1 N         144.4750  143.3461  166.5057 N.pl3   1  UNL1       -0.2825
      2 H         145.1808  143.8940  166.9191 H       1  UNL1        0.1551
      3 C         144.1837  143.0593  162.0243 C.ar    1  UNL1        0.0847
      4 C         143.4612  144.1524  162.7544 C.ar    1  UNL1        0.0205
      5 C         143.5583  144.2480  164.2481 C.ar    1  UNL1        0.0162
      6 C         144.3779  143.2505  165.0118 C.ar    1  UNL1        0.0506
      7 C         145.1003  142.1574  164.2818 C.ar    1  UNL1        0.0162
      8 C         145.0033  142.0617  162.7880 C.ar    1  UNL1        0.0205
      9 C         144.6628  142.6292  158.1966 C.ar    1  UNL1        0.1851
     10 N         143.2119  143.0035  158.2669 N.ar    1  UNL1       -0.2031
     11 C         142.8558  143.2101  159.7093 C.ar    1  UNL1        0.2015
     12 N         144.0866  142.9636  160.5305 N.ar    1  UNL1       -0.2080
     13 N         145.2034  142.6045  159.5956 N.ar    1  UNL1       -0.1441
     14 C         147.7599  141.4396  153.1974 C.3     1  UNL1        0.0521
     15 C         146.9857  141.7370  154.4472 C.ar    1  UNL1        0.0594
     16 C         147.6905  142.2801  155.6548 C.ar    1  UNL1        0.0148
     17 C         146.9162  142.5775  156.9046 C.ar    1  UNL1        0.0059
     18 C         145.4371  142.3318  156.9468 C.ar    1  UNL1        0.0567
     19 C         144.7323  141.7887  155.7393 C.ar    1  UNL1        0.1015
     20 N         145.5065  141.4913  154.4895 N.ar    1  UNL1       -0.2480
     21 C         143.4965  142.6070  167.3697 C.ar    1  UNL1        0.2207
     22 N         143.6313  142.6521  168.8629 N.ar    1  UNL1       -0.2120
     23 C         142.6528  141.9130  169.7269 C.ar    1  UNL1        0.1034
     24 C         141.5397  141.1289  169.0977 C.ar    1  UNL1        0.0399
     25 C         141.4050  141.0838  167.6045 C.ar    1  UNL1        0.0858
     26 N         142.3834  141.8229  166.7405 N.ar    1  UNL1       -0.2135
     27 C         140.2919  140.2997  166.9752 C.ar    1  UNL1        0.0190
     28 C         139.1892  139.7459  167.8281 C.ar    1  UNL1        0.0016
     29 C         138.0760  138.9617  167.1988 C.ar    1  UNL1        0.0013
     30 C         138.0655  138.7313  165.7166 C.ar    1  UNL1        0.0145
     31 C         139.1683  139.2850  164.8637 C.ar    1  UNL1        0.0480
     32 C         140.2815  140.0692  165.4930 C.ar    1  UNL1        0.0160
     33 N         139.1578  139.0546  163.3816 N.pl3   1  UNL1       -0.3028
     34 C         137.9847  139.5027  162.5612 C.3     1  UNL1        0.1231
     35 C         137.9743  139.2722  161.0790 C.3     1  UNL1        0.1636
     36 O         139.1370  138.5937  160.4173 O.3     1  UNL1       -0.3501
     37 C         140.3100  138.1456  161.2377 C.3     1  UNL1        0.1636
     38 C         140.3205  138.3760  162.7199 C.3     1  UNL1        0.1231
@<TRIPOS>BOND
     1    14    15    1
     2    15    16   ar
     3    16    17   ar
     4    17    18   ar
     5    18     9    1
     6     9    10   ar
     7    10    11   ar
     8    11    12   ar
     9    12     3    1
    10     3     4   ar
    11     4     5   ar
    12     5     6   ar
    13     6     1    1
    14     1    21    1
    15    21    22   ar
    16    22    23   ar
    17    23    24   ar
    18    24    25   ar
    19    25    27    1
    20    27    28   ar
    21    28    29   ar
    22    29    30   ar
    23    30    31   ar
    24    31    33    1
    25    33    34    1
    26    34    35    1
    27    35    36    1
    28    36    37    1
    29    37    38    1
    30    31    32   ar
    31    25    26   ar
    32     6     7   ar
    33     7     8   ar
    34    12    13   ar
    35    18    19   ar
    36    19    20   ar
    37    20    15   ar
    38    13     9   ar
    39     8     3   ar
    40    26    21   ar
    41    32    27   ar
    42    38    33    1
    43     1     2    1
@<TRIPOS>MOLECULE
*****
 38 43 0 0 0
SMALL
GASTEIGER

@<TRIPOS>ATOM
      1 N         141.8131  144.8302  159.3847 N.pl3   1  UNL1       -0.2825
      2 H         141.9984  145.6849  158.9327 H       1  UNL1        0.1551
      3 C         143.0260  140.9526  157.4499 C.ar    1  UNL1        0.0847
      4 C         144.0656  141.8396  158.0682 C.ar    1  UNL1        0.0205
      5 C         143.6613  143.1321  158.7131 C.ar    1  UNL1        0.0162
      6 C         142.2174  143.5376  158.7397 C.ar    1  UNL1        0.0506
      7 C         141.1779  142.6506  158.1214 C.ar    1  UNL1        0.0162
      8 C         141.5821  141.3581  157.4765 C.ar    1  UNL1        0.0205
      9 C         143.4691  137.3274  156.1357 C.ar    1  UNL1        0.1851
     10 N         144.6353  138.0146  155.4894 N.ar    1  UNL1       -0.2031
     11 C         144.6113  139.4562  155.9030 C.ar    1  UNL1        0.2015
     12 N         143.4302  139.6601  156.8050 N.ar    1  UNL1       -0.2080
     13 N         142.7243  138.3444  156.9487 N.ar    1  UNL1       -0.1441
     14 C         142.0352  131.5290  155.5682 C.3     1  UNL1        0.0521
     15 C         142.3937  132.9786  155.7101 C.ar    1  UNL1        0.0594
     16 C         142.3461  133.8834  154.5147 C.ar    1  UNL1        0.0148
     17 C         142.7046  135.3330  154.6566 C.ar    1  UNL1        0.0059
     18 C         143.1106  135.8778  155.9938 C.ar    1  UNL1        0.0567
     19 C         143.1582  134.9730  157.1892 C.ar    1  UNL1        0.1015
     20 N         142.7997  133.5234  157.0473 N.ar    1  UNL1       -0.2480
     21 C         141.1266  144.8203  160.7183 C.ar    1  UNL1        0.2207
     22 N         139.7739  145.4506  160.8701 N.ar    1  UNL1       -0.2120
     23 C         139.0873  145.4407  162.2038 C.ar    1  UNL1        0.1034
     24 C         139.7534  144.8007  163.3856 C.ar    1  UNL1        0.0399
     25 C         141.1061  144.1705  163.2337 C.ar    1  UNL1        0.0858
     26 N         141.7926  144.1803  161.9001 N.ar    1  UNL1       -0.2135
     27 C         141.7722  143.5305  164.4154 C.ar    1  UNL1        0.0190
     28 C         143.2543  143.2997  164.4069 C.ar    1  UNL1        0.0016
     29 C         143.9205  142.6596  165.5887 C.ar    1  UNL1        0.0013
     30 C         143.1046  142.2503  166.7790 C.ar    1  UNL1        0.0145
     31 C         141.6225  142.4811  166.7875 C.ar    1  UNL1        0.0480
     32 C         140.9563  143.1212  165.6057 C.ar    1  UNL1        0.0160
     33 N         140.8066  142.0718  167.9778 N.pl3   1  UNL1       -0.3028
     34 C         140.6630  143.0033  169.1448 C.3     1  UNL1        0.1231
     35 C         139.8471  142.5940  170.3350 C.3     1  UNL1        0.1636
     36 O         139.1748  141.2533  170.3583 O.3     1  UNL1       -0.3501
     37 C         139.3183  140.3219  169.1914 C.3     1  UNL1        0.1636
     38 C         140.1342  140.7312  168.0011 C.3     1  UNL1        0.1231
@<TRIPOS>BOND
     1    14    15    1
     2    15    16   ar
     3    16    17   ar
     4    17    18   ar
     5    18     9    1
     6     9    10   ar
     7    10    11   ar
     8    11    12   ar
     9    12     3    1
    10     3     4   ar
    11     4     5   ar
    12     5     6   ar
    13     6     1    1
    14     1    21    1
    15    21    22   ar
    16    22    23   ar
    17    23    24   ar
    18    24    25   ar
    19    25    27    1
    20    27    28   ar
    21    28    29   ar
    22    29    30   ar
    23    30    31   ar
    24    31    33    1
    25    33    34    1
    26    34    35    1
    27    35    36    1
    28    36    37    1
    29    37    38    1
    30    31    32   ar
    31    25    26   ar
    32     6     7   ar
    33     7     8   ar
    34    12    13   ar
    35    18    19   ar
    36    19    20   ar
    37    20    15   ar
    38    13     9   ar
    39     8     3   ar
    40    26    21   ar
    41    32    27   ar
    42    38    33    1
    43     1     2    1
@<TRIPOS>MOLECULE
*****
 38 43 0 0 0
SMALL
GASTEIGER

@<TRIPOS>ATOM
      1 N         141.2384  143.6669  161.2398 N.pl3   1  UNL1       -0.2825
      2 H         141.7526  144.5056  161.2026 H       1  UNL1        0.1551
      3 C         142.3830  140.2069  158.6000 C.ar    1  UNL1        0.0847
      4 C         143.3861  140.7878  159.5521 C.ar    1  UNL1        0.0205
      5 C         143.0045  141.9410  160.4320 C.ar    1  UNL1        0.0162
      6 C         141.6200  142.5135  160.3598 C.ar    1  UNL1        0.0506
      7 C         140.6170  141.9327  159.4077 C.ar    1  UNL1        0.0162
      8 C         140.9985  140.7794  158.5277 C.ar    1  UNL1        0.0205
      9 C         142.9006  136.8282  156.7610 C.ar    1  UNL1        0.1851
     10 N         143.8027  137.7294  155.9709 N.ar    1  UNL1       -0.2031
     11 C         143.7186  139.1048  156.5636 C.ar    1  UNL1        0.2015
     12 N         142.7646  139.0536  157.7200 N.ar    1  UNL1       -0.2080
     13 N         142.2590  137.6467  157.8420 N.ar    1  UNL1       -0.1441
     14 C         142.0143  130.9772  155.7710 C.3     1  UNL1        0.0521
     15 C         142.2358  132.4400  156.0185 C.ar    1  UNL1        0.0594
     16 C         141.6129  133.4573  155.1091 C.ar    1  UNL1        0.0148
     17 C         141.8345  134.9200  155.3566 C.ar    1  UNL1        0.0059
     18 C         142.6790  135.3655  156.5135 C.ar    1  UNL1        0.0567
     19 C         143.3019  134.3482  157.4228 C.ar    1  UNL1        0.1015
     20 N         143.0803  132.8854  157.1753 N.ar    1  UNL1       -0.2480
     21 C         140.0732  143.5423  162.1763 C.ar    1  UNL1        0.2207
     22 N         138.8975  144.4633  162.0373 N.ar    1  UNL1       -0.2120
     23 C         137.7324  144.3388  162.9738 C.ar    1  UNL1        0.1034
     24 C         137.7430  143.2932  164.0493 C.ar    1  UNL1        0.0399
     25 C         138.9188  142.3722  164.1883 C.ar    1  UNL1        0.0858
     26 N         140.0839  142.4968  163.2518 N.ar    1  UNL1       -0.2135
     27 C         138.9295  141.3267  165.2637 C.ar    1  UNL1        0.0190
     28 C         138.1827  140.0407  165.0669 C.ar    1  UNL1        0.0016
     29 C         138.1934  138.9951  166.1424 C.ar    1  UNL1        0.0013
     30 C         138.9509  139.2354  167.4146 C.ar    1  UNL1        0.0145
     31 C         139.6976  140.5213  167.6114 C.ar    1  UNL1        0.0480
     32 C         139.6869  141.5670  166.5359 C.ar    1  UNL1        0.0160
     33 N         140.4551  140.7616  168.8836 N.pl3   1  UNL1       -0.3028
     34 C         141.7183  140.0013  169.1593 C.3     1  UNL1        0.1231
     35 C         142.4758  140.2416  170.4315 C.3     1  UNL1        0.1636
     36 O         141.9700  141.2423  171.4280 O.3     1  UNL1       -0.3501
     37 C         140.7067  142.0026  171.1522 C.3     1  UNL1        0.1636
     38 C         139.9493  141.7623  169.8800 C.3     1  UNL1        0.1231
@<TRIPOS>BOND
     1    14    15    1
     2    15    16   ar
     3    16    17   ar
     4    17    18   ar
     5    18     9    1
     6     9    10   ar
     7    10    11   ar
     8    11    12   ar
     9    12     3    1
    10     3     4   ar
    11     4     5   ar
    12     5     6   ar
    13     6     1    1
    14     1    21    1
    15    21    22   ar
    16    22    23   ar
    17    23    24   ar
    18    24    25   ar
    19    25    27    1
    20    27    28   ar
    21    28    29   ar
    22    29    30   ar
    23    30    31   ar
    24    31    33    1
    25    33    34    1
    26    34    35    1
    27    35    36    1
    28    36    37    1
    29    37    38    1
    30    31    32   ar
    31    25    26   ar
    32     6     7   ar
    33     7     8   ar
    34    12    13   ar
    35    18    19   ar
    36    19    20   ar
    37    20    15   ar
    38    13     9   ar
    39     8     3   ar
    40    26    21   ar
    41    32    27   ar
    42    38    33    1
    43     1     2    1
@<TRIPOS>MOLECULE
*****
 38 43 0 0 0
SMALL
GASTEIGER

@<TRIPOS>ATOM
      1 N         143.9921  142.1364  160.1591 N.pl3   1  UNL1       -0.2825
      2 H         144.1036  142.9885  159.6788 H       1  UNL1        0.1551
      3 C         142.9712  138.3890  157.8865 C.ar    1  UNL1        0.0847
      4 C         143.3208  139.6447  157.1441 C.ar    1  UNL1        0.0205
      5 C         143.6611  140.8937  157.9016 C.ar    1  UNL1        0.0162
      6 C         143.6518  140.8872  159.4016 C.ar    1  UNL1        0.0506
      7 C         143.3022  139.6317  160.1440 C.ar    1  UNL1        0.0162
      8 C         142.9619  138.3826  159.3865 C.ar    1  UNL1        0.0205
      9 C         142.7732  134.9252  156.1464 C.ar    1  UNL1        0.1851
     10 N         141.4413  135.5100  155.7803 N.ar    1  UNL1       -0.2031
     11 C         141.3533  136.8788  156.3876 C.ar    1  UNL1        0.2015
     12 N         142.6309  137.1399  157.1290 N.ar    1  UNL1       -0.2080
     13 N         143.5084  135.9325  156.9799 N.ar    1  UNL1       -0.1441
     14 C         144.8035  129.5078  154.5559 C.3     1  UNL1        0.0521
     15 C         144.2959  130.8622  154.9535 C.ar    1  UNL1        0.0594
     16 C         144.8139  131.5218  156.1971 C.ar    1  UNL1        0.0148
     17 C         144.3063  132.8762  156.5947 C.ar    1  UNL1        0.0059
     18 C         143.2808  133.5708  155.7488 C.ar    1  UNL1        0.0567
     19 C         142.7628  132.9112  154.5052 C.ar    1  UNL1        0.1015
     20 N         143.2704  131.5568  154.1076 N.ar    1  UNL1       -0.2480
     21 C         144.1625  142.0873  161.6486 C.ar    1  UNL1        0.2207
     22 N         145.4871  141.7052  162.2398 N.ar    1  UNL1       -0.2120
     23 C         145.6575  141.6560  163.7293 C.ar    1  UNL1        0.1034
     24 C         144.5034  141.9890  164.6276 C.ar    1  UNL1        0.0399
     25 C         143.1788  142.3711  164.0365 C.ar    1  UNL1        0.0858
     26 N         143.0084  142.4202  162.5470 N.ar    1  UNL1       -0.2135
     27 C         142.0247  142.7040  164.9348 C.ar    1  UNL1        0.0190
     28 C         140.9004  143.5571  164.4264 C.ar    1  UNL1        0.0016
     29 C         139.7462  143.8901  165.3247 C.ar    1  UNL1        0.0013
     30 C         139.7162  143.3700  166.7313 C.ar    1  UNL1        0.0145
     31 C         140.8404  142.5169  167.2397 C.ar    1  UNL1        0.0480
     32 C         141.9946  142.1839  166.3414 C.ar    1  UNL1        0.0160
     33 N         140.8103  141.9968  168.6463 N.pl3   1  UNL1       -0.3028
     34 C         139.9372  140.8282  168.9953 C.3     1  UNL1        0.1231
     35 C         139.9071  140.3081  170.4019 C.3     1  UNL1        0.1636
     36 O         140.7503  140.9567  171.4595 O.3     1  UNL1       -0.3501
     37 C         141.6234  142.1253  171.1105 C.3     1  UNL1        0.1636
     38 C         141.6535  142.6454  169.7039 C.3     1  UNL1        0.1231
@<TRIPOS>BOND
     1    14    15    1
     2    15    16   ar
     3    16    17   ar
     4    17    18   ar
     5    18     9    1
     6     9    10   ar
     7    10    11   ar
     8    11    12   ar
     9    12     3    1
    10     3     4   ar
    11     4     5   ar
    12     5     6   ar
    13     6     1    1
    14     1    21    1
    15    21    22   ar
    16    22    23   ar
    17    23    24   ar
    18    24    25   ar
    19    25    27    1
    20    27    28   ar
    21    28    29   ar
    22    29    30   ar
    23    30    31   ar
    24    31    33    1
    25    33    34    1
    26    34    35    1
    27    35    36    1
    28    36    37    1
    29    37    38    1
    30    31    32   ar
    31    25    26   ar
    32     6     7   ar
    33     7     8   ar
    34    12    13   ar
    35    18    19   ar
    36    19    20   ar
    37    20    15   ar
    38    13     9   ar
    39     8     3   ar
    40    26    21   ar
    41    32    27   ar
    42    38    33    1
    43     1     2    1
@<TRIPOS>MOLECULE
*****
 38 43 0 0 0
SMALL
GASTEIGER

@<TRIPOS>ATOM
      1 N         141.6184  142.3954  160.3060 N.pl3   1  UNL1       -0.2825
      2 H         140.8787  142.9824  160.0279 H       1  UNL1        0.1551
      3 C         142.6654  138.7757  157.8460 C.ar    1  UNL1        0.0847
      4 C         143.5881  139.9581  157.8708 C.ar    1  UNL1        0.0205
      5 C         143.2391  141.1646  158.6908 C.ar    1  UNL1        0.0162
      6 C         141.9674  141.1887  159.4860 C.ar    1  UNL1        0.0506
      7 C         141.0448  140.0064  159.4611 C.ar    1  UNL1        0.0162
      8 C         141.3938  138.7999  158.6411 C.ar    1  UNL1        0.0205
      9 C         143.5351  135.2877  156.3821 C.ar    1  UNL1        0.1851
     10 N         143.5676  136.1370  155.1462 N.ar    1  UNL1       -0.2031
     11 C         143.2458  137.5470  155.5441 C.ar    1  UNL1        0.2015
     12 N         143.0144  137.5691  157.0260 N.ar    1  UNL1       -0.2080
     13 N         143.1932  136.1728  157.5439 N.ar    1  UNL1       -0.1441
     14 C         144.5880  129.3862  156.6345 C.3     1  UNL1        0.0521
     15 C         144.3248  130.8616  156.5714 C.ar    1  UNL1        0.0594
     16 C         144.7083  131.7418  157.7238 C.ar    1  UNL1        0.0148
     17 C         144.4450  133.2171  157.6607 C.ar    1  UNL1        0.0059
     18 C         143.7984  133.8123  156.4452 C.ar    1  UNL1        0.0567
     19 C         143.4149  132.9321  155.2928 C.ar    1  UNL1        0.1015
     20 N         143.6781  131.4567  155.3559 N.ar    1  UNL1       -0.2480
     21 C         142.3965  142.7074  161.5499 C.ar    1  UNL1        0.2207
     22 N         143.2945  143.9082  161.5913 N.ar    1  UNL1       -0.2120
     23 C         144.0726  144.2203  162.8352 C.ar    1  UNL1        0.1034
     24 C         143.9527  143.3316  164.0376 C.ar    1  UNL1        0.0399
     25 C         143.0548  142.1308  163.9962 C.ar    1  UNL1        0.0858
     26 N         142.2767  141.8187  162.7523 N.ar    1  UNL1       -0.2135
     27 C         142.9349  141.2421  165.1985 C.ar    1  UNL1        0.0190
     28 C         143.4482  139.8337  165.1443 C.ar    1  UNL1        0.0016
     29 C         143.3283  138.9449  166.3467 C.ar    1  UNL1        0.0013
     30 C         142.6951  139.4645  167.6033 C.ar    1  UNL1        0.0145
     31 C         142.1818  140.8729  167.6575 C.ar    1  UNL1        0.0480
     32 C         142.3017  141.7617  166.4551 C.ar    1  UNL1        0.0160
     33 N         141.5486  141.3925  168.9141 N.pl3   1  UNL1       -0.3028
     34 C         141.6324  140.5945  170.1815 C.3     1  UNL1        0.1231
     35 C         140.9992  141.1141  171.4381 C.3     1  UNL1        0.1636
     36 O         140.2822  142.4317  171.4273 O.3     1  UNL1       -0.3501
     37 C         140.1984  143.2296  170.1600 C.3     1  UNL1        0.1636
     38 C         140.8316  142.7100  168.9034 C.3     1  UNL1        0.1231
@<TRIPOS>BOND
     1    14    15    1
     2    15    16   ar
     3    16    17   ar
     4    17    18   ar
     5    18     9    1
     6     9    10   ar
     7    10    11   ar
     8    11    12   ar
     9    12     3    1
    10     3     4   ar
    11     4     5   ar
    12     5     6   ar
    13     6     1    1
    14     1    21    1
    15    21    22   ar
    16    22    23   ar
    17    23    24   ar
    18    24    25   ar
    19    25    27    1
    20    27    28   ar
    21    28    29   ar
    22    29    30   ar
    23    30    31   ar
    24    31    33    1
    25    33    34    1
    26    34    35    1
    27    35    36    1
    28    36    37    1
    29    37    38    1
    30    31    32   ar
    31    25    26   ar
    32     6     7   ar
    33     7     8   ar
    34    12    13   ar
    35    18    19   ar
    36    19    20   ar
    37    20    15   ar
    38    13     9   ar
    39     8     3   ar
    40    26    21   ar
    41    32    27   ar
    42    38    33    1
    43     1     2    1
@<TRIPOS>MOLECULE
*****
 38 43 0 0 0
SMALL
GASTEIGER

@<TRIPOS>ATOM
      1 N         143.4530  138.9129  165.9677 N.pl3   1  UNL1       -0.2825
      2 H         144.0101  138.2893  166.4872 H       1  UNL1        0.1551
      3 C         143.2353  138.5391  161.4885 C.ar    1  UNL1        0.0847
      4 C         142.2040  137.8699  162.3480 C.ar    1  UNL1        0.0205
      5 C         142.2766  137.9945  163.8410 C.ar    1  UNL1        0.0162
      6 C         143.3804  138.7883  164.4746 C.ar    1  UNL1        0.0506
      7 C         144.4117  139.4574  163.6152 C.ar    1  UNL1        0.0162
      8 C         144.3391  139.3328  162.1221 C.ar    1  UNL1        0.0205
      9 C         142.8395  137.5066  157.7679 C.ar    1  UNL1        0.1851
     10 N         143.2629  138.9387  157.6279 N.ar    1  UNL1       -0.2031
     11 C         143.4627  139.4999  159.0045 C.ar    1  UNL1        0.2015
     12 N         143.1628  138.4145  159.9955 N.ar    1  UNL1       -0.2080
     13 N         142.7776  137.1826  159.2312 N.ar    1  UNL1       -0.1441
     14 C         141.6093  133.7361  153.2657 C.3     1  UNL1        0.0521
     15 C         141.9168  134.6787  154.3913 C.ar    1  UNL1        0.0594
     16 C         143.2983  134.7260  154.9738 C.ar    1  UNL1        0.0148
     17 C         143.6058  135.6686  156.0993 C.ar    1  UNL1        0.0059
     18 C         142.5319  136.5640  156.6424 C.ar    1  UNL1        0.0567
     19 C         141.1505  136.5167  156.0599 C.ar    1  UNL1        0.1015
     20 N         140.8429  135.5741  154.9344 N.ar    1  UNL1       -0.2480
     21 C         142.6766  139.9878  166.6692 C.ar    1  UNL1        0.2207
     22 N         142.7024  140.0759  168.1664 N.ar    1  UNL1       -0.2120
     23 C         141.9260  141.1507  168.8678 C.ar    1  UNL1        0.1034
     24 C         141.1240  142.1374  168.0722 C.ar    1  UNL1        0.0399
     25 C         141.0982  142.0493  166.5750 C.ar    1  UNL1        0.0858
     26 N         141.8746  140.9745  165.8735 N.ar    1  UNL1       -0.2135
     27 C         140.2962  143.0359  165.7793 C.ar    1  UNL1        0.0190
     28 C         139.3748  143.9910  166.4785 C.ar    1  UNL1        0.0016
     29 C         138.5727  144.9777  165.6827 C.ar    1  UNL1        0.0013
     30 C         138.6921  145.0093  164.1878 C.ar    1  UNL1        0.0145
     31 C         139.6135  144.0543  163.4886 C.ar    1  UNL1        0.0480
     32 C         140.4156  143.0675  164.2844 C.ar    1  UNL1        0.0160
     33 N         139.7328  144.0859  161.9937 N.pl3   1  UNL1       -0.3028
     34 C         139.1640  142.9672  161.1721 C.3     1  UNL1        0.1231
     35 C         139.2834  142.9988  159.6772 C.3     1  UNL1        0.1636
     36 O         139.9715  144.1491  159.0039 O.3     1  UNL1       -0.3501
     37 C         140.5404  145.2678  159.8255 C.3     1  UNL1        0.1636
     38 C         140.4210  145.2362  161.3204 C.3     1  UNL1        0.1231
@<TRIPOS>BOND
     1    14    15    1
     2    15    16   ar
     3    16    17   ar
     4    17    18   ar
     5    18     9    1
     6     9    10   ar
     7    10    11   ar
     8    11    12   ar
     9    12     3    1
    10     3     4   ar
    11     4     5   ar
    12     5     6   ar
    13     6     1    1
    14     1    21    1
    15    21    22   ar
    16    22    23   ar
    17    23    24   ar
    18    24    25   ar
    19    25    27    1
    20    27    28   ar
    21    28    29   ar
    22    29    30   ar
    23    30    31   ar
    24    31    33    1
    25    33    34    1
    26    34    35    1
    27    35    36    1
    28    36    37    1
    29    37    38    1
    30    31    32   ar
    31    25    26   ar
    32     6     7   ar
    33     7     8   ar
    34    12    13   ar
    35    18    19   ar
    36    19    20   ar
    37    20    15   ar
    38    13     9   ar
    39     8     3   ar
    40    26    21   ar
    41    32    27   ar
    42    38    33    1
    43     1     2    1
@<TRIPOS>MOLECULE
*****
 38 43 0 0 0
SMALL
GASTEIGER

@<TRIPOS>ATOM
      1 N         139.6192  143.1494  159.9690 N.pl3   1  UNL1       -0.2825
      2 H         139.7006  144.0284  159.5331 H       1  UNL1        0.1551
      3 C         140.3520  139.3900  157.6068 C.ar    1  UNL1        0.0847
      4 C         141.4229  139.9306  158.5073 C.ar    1  UNL1        0.0205
      5 C         141.1786  141.1837  159.2947 C.ar    1  UNL1        0.0162
      6 C         139.8635  141.8962  159.1816 C.ar    1  UNL1        0.0506
      7 C         138.7927  141.3557  158.2811 C.ar    1  UNL1        0.0162
      8 C         139.0369  140.1025  157.4937 C.ar    1  UNL1        0.0205
      9 C         141.5099  136.0096  156.0910 C.ar    1  UNL1        0.1851
     10 N         140.4341  136.4074  155.1244 N.ar    1  UNL1       -0.2031
     11 C         139.8694  137.7221  155.5745 C.ar    1  UNL1        0.2015
     12 N         140.5962  138.1369  156.8194 N.ar    1  UNL1       -0.2080
     13 N         141.6101  137.0786  157.1386 N.ar    1  UNL1       -0.1441
     14 C         144.8297  131.0193  155.8156 C.3     1  UNL1        0.0521
     15 C         143.9997  132.2669  155.8845 C.ar    1  UNL1        0.0594
     16 C         142.8682  132.4690  154.9208 C.ar    1  UNL1        0.0148
     17 C         142.0382  133.7166  154.9897 C.ar    1  UNL1        0.0059
     18 C         142.3399  134.7621  156.0221 C.ar    1  UNL1        0.0567
     19 C         143.4714  134.5599  156.9858 C.ar    1  UNL1        0.1015
     20 N         144.3014  133.3123  156.9169 N.ar    1  UNL1       -0.2480
     21 C         139.2511  143.0633  161.4206 C.ar    1  UNL1        0.2207
     22 N         137.8117  143.1419  161.8352 N.ar    1  UNL1       -0.2120
     23 C         137.4435  143.0558  163.2868 C.ar    1  UNL1        0.1034
     24 C         138.5147  142.8910  164.3237 C.ar    1  UNL1        0.0399
     25 C         139.9541  142.8124  163.9092 C.ar    1  UNL1        0.0858
     26 N         140.3223  142.8985  162.4576 N.ar    1  UNL1       -0.2135
     27 C         141.0253  142.6476  164.9460 C.ar    1  UNL1        0.0190
     28 C         142.4660  142.5865  164.5328 C.ar    1  UNL1        0.0016
     29 C         143.5373  142.4217  165.5698 C.ar    1  UNL1        0.0013
     30 C         143.1680  142.3181  167.0199 C.ar    1  UNL1        0.0145
     31 C         141.7273  142.3793  167.4331 C.ar    1  UNL1        0.0480
     32 C         140.6559  142.5440  166.3961 C.ar    1  UNL1        0.0160
     33 N         141.3579  142.2757  168.8832 N.pl3   1  UNL1       -0.3028
     34 C         140.2358  143.1058  169.4325 C.3     1  UNL1        0.1231
     35 C         139.8665  143.0022  170.8826 C.3     1  UNL1        0.1636
     36 O         140.6192  142.0685  171.7834 O.3     1  UNL1       -0.3501
     37 C         141.7414  141.2384  171.2342 C.3     1  UNL1        0.1636
     38 C         142.1107  141.3419  169.7841 C.3     1  UNL1        0.1231
@<TRIPOS>BOND
     1    14    15    1
     2    15    16   ar
     3    16    17   ar
     4    17    18   ar
     5    18     9    1
     6     9    10   ar
     7    10    11   ar
     8    11    12   ar
     9    12     3    1
    10     3     4   ar
    11     4     5   ar
    12     5     6   ar
    13     6     1    1
    14     1    21    1
    15    21    22   ar
    16    22    23   ar
    17    23    24   ar
    18    24    25   ar
    19    25    27    1
    20    27    28   ar
    21    28    29   ar
    22    29    30   ar
    23    30    31   ar
    24    31    33    1
    25    33    34    1
    26    34    35    1
    27    35    36    1
    28    36    37    1
    29    37    38    1
    30    31    32   ar
    31    25    26   ar
    32     6     7   ar
    33     7     8   ar
    34    12    13   ar
    35    18    19   ar
    36    19    20   ar
    37    20    15   ar
    38    13     9   ar
    39     8     3   ar
    40    26    21   ar
    41    32    27   ar
    42    38    33    1
    43     1     2    1
@<TRIPOS>MOLECULE
*****
 38 43 0 0 0
SMALL
GASTEIGER

@<TRIPOS>ATOM
      1 N         144.4427  143.2696  166.5588 N.pl3   1  UNL1       -0.2825
      2 H         145.2703  143.6860  166.8919 H       1  UNL1        0.1551
      3 C         143.4357  143.4564  162.1769 C.ar    1  UNL1        0.0847
      4 C         143.7394  142.1362  162.8211 C.ar    1  UNL1        0.0205
      5 C         144.0751  142.0740  164.2816 C.ar    1  UNL1        0.0162
      6 C         144.1070  143.3319  165.0981 C.ar    1  UNL1        0.0506
      7 C         143.8033  144.6520  164.4540 C.ar    1  UNL1        0.0162
      8 C         143.4677  144.7143  162.9934 C.ar    1  UNL1        0.0205
      9 C         141.9654  144.0087  158.6274 C.ar    1  UNL1        0.1851
     10 N         143.2014  143.2204  158.3098 N.ar    1  UNL1       -0.2031
     11 C         143.9026  142.9176  159.6007 C.ar    1  UNL1        0.2015
     12 N         143.1000  143.5187  160.7163 N.ar    1  UNL1       -0.2080
     13 N         141.9028  144.1930  160.1148 N.ar    1  UNL1       -0.1441
     14 C         137.9730  146.0637  154.6477 C.3     1  UNL1        0.0521
     15 C         138.9711  145.5499  155.6427 C.ar    1  UNL1        0.0594
     16 C         139.2994  144.0871  155.6887 C.ar    1  UNL1        0.0148
     17 C         140.2975  143.5733  156.6836 C.ar    1  UNL1        0.0059
     18 C         140.9673  144.5224  157.6325 C.ar    1  UNL1        0.0567
     19 C         140.6390  145.9853  157.5865 C.ar    1  UNL1        0.1015
     20 N         139.6409  146.4990  156.5916 N.ar    1  UNL1       -0.2480
     21 C         143.5174  142.5730  167.5120 C.ar    1  UNL1        0.2207
     22 N         143.7911  142.6116  168.9863 N.ar    1  UNL1       -0.2120
     23 C         142.8658  141.9150  169.9394 C.ar    1  UNL1        0.1034
     24 C         141.6668  141.1797  169.4183 C.ar    1  UNL1        0.0399
     25 C         141.3930  141.1410  167.9440 C.ar    1  UNL1        0.0858
     26 N         142.3184  141.8377  166.9908 N.ar    1  UNL1       -0.2135
     27 C         140.1940  140.4058  167.4228 C.ar    1  UNL1        0.0190
     28 C         139.2211  139.7837  168.3802 C.ar    1  UNL1        0.0016
     29 C         138.0220  139.0484  167.8590 C.ar    1  UNL1        0.0013
     30 C         137.7959  138.9351  166.3805 C.ar    1  UNL1        0.0145
     31 C         138.7688  139.5571  165.4231 C.ar    1  UNL1        0.0480
     32 C         139.9679  140.2925  165.9443 C.ar    1  UNL1        0.0160
     33 N         138.5427  139.4439  163.9446 N.pl3   1  UNL1       -0.3028
     34 C         138.9155  138.1826  163.2234 C.3     1  UNL1        0.1231
     35 C         138.6894  138.0693  161.7449 C.3     1  UNL1        0.1636
     36 O         138.0904  139.2173  160.9876 O.3     1  UNL1       -0.3501
     37 C         137.7175  140.4785  161.7089 C.3     1  UNL1        0.1636
     38 C         137.9437  140.5918  163.1874 C.3     1  UNL1        0.1231
@<TRIPOS>BOND
     1    14    15    1
     2    15    16   ar
     3    16    17   ar
     4    17    18   ar
     5    18     9    1
     6     9    10   ar
     7    10    11   ar
     8    11    12   ar
     9    12     3    1
    10     3     4   ar
    11     4     5   ar
    12     5     6   ar
    13     6     1    1
    14     1    21    1
    15    21    22   ar
    16    22    23   ar
    17    23    24   ar
    18    24    25   ar
    19    25    27    1
    20    27    28   ar
    21    28    29   ar
    22    29    30   ar
    23    30    31   ar
    24    31    33    1
    25    33    34    1
    26    34    35    1
    27    35    36    1
    28    36    37    1
    29    37    38    1
    30    31    32   ar
    31    25    26   ar
    32     6     7   ar
    33     7     8   ar
    34    12    13   ar
    35    18    19   ar
    36    19    20   ar
    37    20    15   ar
    38    13     9   ar
    39     8     3   ar
    40    26    21   ar
    41    32    27   ar
    42    38    33    1
    43     1     2    1
