@<TRIPOS>MOLECULE
*****
 35 38 0 0 0
SMALL
GASTEIGER

@<TRIPOS>ATOM
      1 C         141.6389  143.6592  162.0821 C.3     1  UNL1        0.1751
      2 C         141.9431  143.9089  160.6347 C.ar    1  UNL1        0.0089
      3 C         142.8889  143.2445  159.6787 C.ar    1  UNL1       -0.0021
      4 C         142.9788  143.7214  158.2594 C.ar    1  UNL1       -0.0003
      5 C         142.1229  144.8627  157.7961 C.ar    1  UNL1        0.0001
      6 C         141.1771  145.5272  158.7520 C.ar    1  UNL1        0.0043
      7 C         141.0872  145.0503  160.1713 C.ar    1  UNL1        0.0516
      8 C         140.2540  145.5060  161.3325 C.2     1  UNL1        0.2493
      9 O         139.2552  146.6249  161.3156 O.2     1  UNL1       -0.2699
     10 N         140.5950  144.6462  162.5134 N.am    1  UNL1       -0.2657
     11 O         141.7520  141.1994  162.9104 O.2     1  UNL1       -0.2729
     12 C         142.2682  142.6072  162.9465 C.2     1  UNL1        0.2451
     13 N         143.4138  142.9631  163.8472 N.am    1  UNL1       -0.2988
     14 H         143.7527  143.8871  163.8709 H       1  UNL1        0.1498
     15 C         144.0431  141.9110  164.7116 C.3     1  UNL1        0.1164
     16 C         143.2971  141.3668  165.8936 C.ar    1  UNL1       -0.0024
     17 C         143.0557  139.8912  166.0136 C.ar    1  UNL1        0.0005
     18 C         142.3096  139.3470  167.1956 C.ar    1  UNL1        0.0369
     19 C         141.8049  140.2783  168.2577 C.ar    1  UNL1        0.1468
     20 C         142.0463  141.7539  168.1377 C.ar    1  UNL1        0.0369
     21 C         142.7924  142.2981  166.9556 C.ar    1  UNL1        0.0005
     22 O         141.0589  139.7340  169.4397 O.3     1  UNL1       -0.4045
     23 C         139.7188  140.2996  169.8062 C.3     1  UNL1        0.5753
     24 F         138.3787  140.8652  170.1726 F       1  UNL1       -0.1328
     25 F         139.1326  139.7236  168.5514 F       1  UNL1       -0.1328
     26 F         140.3050  140.8756  171.0610 F       1  UNL1       -0.1328
     27 C         139.9970  144.7545  163.8848 C.3     1  UNL1        0.1007
     28 C         138.7141  144.0450  164.2017 C.3     1  UNL1        0.0673
     29 C         138.6644  142.5458  164.1941 C.ar    1  UNL1        0.0609
     30 C         139.2706  141.7696  165.3256 C.ar    1  UNL1        0.0171
     31 C         139.2209  140.2704  165.3180 C.ar    1  UNL1        0.0325
     32 C         138.5651  139.5475  164.1789 C.ar    1  UNL1        0.1592
     33 F         138.5155  138.0483  164.1713 F       1  UNL1       -0.2025
     34 C         137.9591  140.3237  163.0475 C.ar    1  UNL1        0.1280
     35 N         138.0087  141.8229  163.0551 N.ar    1  UNL1       -0.2457
@<TRIPOS>BOND
     1    11    12    2
     2    12    13   am
     3    13    15    1
     4    15    16    1
     5    16    17   ar
     6    17    18   ar
     7    18    19   ar
     8    19    22    1
     9    22    23    1
    10    23    24    1
    11    23    25    1
    12    23    26    1
    13    19    20   ar
    14    20    21   ar
    15    12     1    1
    16     1     2    1
    17     2     3   ar
    18     3     4   ar
    19     4     5   ar
    20     5     6   ar
    21     6     7   ar
    22     7     8    1
    23     8     9    2
    24     8    10   am
    25    10    27    1
    26    27    28    1
    27    28    29    1
    28    29    30   ar
    29    30    31   ar
    30    31    32   ar
    31    32    33    1
    32    32    34   ar
    33    34    35   ar
    34    21    16   ar
    35    10     1    1
    36    35    29   ar
    37     7     2   ar
    38    13    14    1
@<TRIPOS>MOLECULE
*****
 35 38 0 0 0
SMALL
GASTEIGER

@<TRIPOS>ATOM
      1 C         142.1269  144.0167  161.6864 C.3     1  UNL1        0.1751
      2 C         141.9705  144.1319  160.1991 C.ar    1  UNL1        0.0089
      3 C         142.7078  143.4929  159.0598 C.ar    1  UNL1       -0.0021
      4 C         142.3192  143.8060  157.6453 C.ar    1  UNL1       -0.0003
      5 C         141.1933  144.7582  157.3700 C.ar    1  UNL1        0.0001
      6 C         140.4560  145.3972  158.5093 C.ar    1  UNL1        0.0043
      7 C         140.8446  145.0841  159.9238 C.ar    1  UNL1        0.0516
      8 C         140.3052  145.5573  161.2411 C.2     1  UNL1        0.2493
      9 O         139.1722  146.5210  161.4349 O.2     1  UNL1       -0.2699
     10 N         141.0977  144.8976  162.3305 N.am    1  UNL1       -0.2657
     11 O         144.4495  143.7595  162.8220 O.2     1  UNL1       -0.2729
     12 C         143.1355  143.1693  162.4038 C.2     1  UNL1        0.2451
     13 N         142.8301  141.7314  162.7031 N.am    1  UNL1       -0.2988
     14 H         141.9676  141.3439  162.4286 H       1  UNL1        0.1498
     15 C         143.8386  140.8840  163.4204 C.3     1  UNL1        0.1164
     16 C         143.5547  140.3947  164.8097 C.ar    1  UNL1       -0.0024
     17 C         143.1140  141.3604  165.8695 C.ar    1  UNL1        0.0005
     18 C         142.8301  140.8710  167.2587 C.ar    1  UNL1        0.0369
     19 C         142.9869  139.4160  167.5882 C.ar    1  UNL1        0.1468
     20 C         143.4277  138.4504  166.5283 C.ar    1  UNL1        0.0369
     21 C         143.7116  138.9398  165.1390 C.ar    1  UNL1        0.0005
     22 O         142.7030  138.9267  168.9774 O.3     1  UNL1       -0.4045
     23 C         141.9589  139.8008  169.9430 C.3     1  UNL1        0.5753
     24 F         141.2148  140.6748  170.9086 F       1  UNL1       -0.1328
     25 F         143.2460  140.1245  170.6419 F       1  UNL1       -0.1328
     26 F         140.6717  139.4771  169.2441 F       1  UNL1       -0.1328
     27 C         140.8964  145.0858  163.8049 C.3     1  UNL1        0.1007
     28 C         139.7118  144.4663  164.4852 C.3     1  UNL1        0.0673
     29 C         139.2070  143.1260  164.0395 C.ar    1  UNL1        0.0609
     30 C         137.8124  142.9899  163.5041 C.ar    1  UNL1        0.0171
     31 C         137.3076  141.6495  163.0583 C.ar    1  UNL1        0.0325
     32 C         138.1975  140.4453  163.1480 C.ar    1  UNL1        0.1592
     33 F         137.6927  139.1049  162.7022 F       1  UNL1       -0.2025
     34 C         139.5920  140.5814  163.6833 C.ar    1  UNL1        0.1280
     35 N         140.0968  141.9217  164.1291 N.ar    1  UNL1       -0.2457
@<TRIPOS>BOND
     1    11    12    2
     2    12    13   am
     3    13    15    1
     4    15    16    1
     5    16    17   ar
     6    17    18   ar
     7    18    19   ar
     8    19    22    1
     9    22    23    1
    10    23    24    1
    11    23    25    1
    12    23    26    1
    13    19    20   ar
    14    20    21   ar
    15    12     1    1
    16     1     2    1
    17     2     3   ar
    18     3     4   ar
    19     4     5   ar
    20     5     6   ar
    21     6     7   ar
    22     7     8    1
    23     8     9    2
    24     8    10   am
    25    10    27    1
    26    27    28    1
    27    28    29    1
    28    29    30   ar
    29    30    31   ar
    30    31    32   ar
    31    32    33    1
    32    32    34   ar
    33    34    35   ar
    34    21    16   ar
    35    10     1    1
    36    35    29   ar
    37     7     2   ar
    38    13    14    1
@<TRIPOS>MOLECULE
*****
 35 38 0 0 0
SMALL
GASTEIGER

@<TRIPOS>ATOM
      1 C         139.5914  143.4839  160.5809 C.3     1  UNL1        0.1751
      2 C         139.2205  143.2347  159.1490 C.ar    1  UNL1        0.0089
      3 C         138.1382  142.4069  158.5220 C.ar    1  UNL1       -0.0021
      4 C         138.0088  142.3482  157.0287 C.ar    1  UNL1       -0.0003
      5 C         138.9618  143.1172  156.1625 C.ar    1  UNL1        0.0001
      6 C         140.0442  143.9450  156.7895 C.ar    1  UNL1        0.0043
      7 C         140.1735  144.0038  158.2828 C.ar    1  UNL1        0.0516
      8 C         141.1334  144.7282  159.1793 C.2     1  UNL1        0.2493
      9 O         142.2560  145.6178  158.7338 O.2     1  UNL1       -0.2699
     10 N         140.7736  144.4069  160.5997 N.am    1  UNL1       -0.2657
     11 O         137.7002  143.6007  162.3584 O.2     1  UNL1       -0.2729
     12 C         138.9012  142.9107  161.7830 C.2     1  UNL1        0.2451
     13 N         139.4121  141.6472  162.4097 N.am    1  UNL1       -0.2988
     14 H         140.2004  141.1942  162.0321 H       1  UNL1        0.1498
     15 C         138.7219  141.0739  163.6118 C.3     1  UNL1        0.1164
     16 C         139.2647  141.3377  164.9850 C.ar    1  UNL1       -0.0024
     17 C         139.6744  142.7268  165.3755 C.ar    1  UNL1        0.0005
     18 C         140.2173  142.9904  166.7488 C.ar    1  UNL1        0.0369
     19 C         140.3504  141.8650  167.7316 C.ar    1  UNL1        0.1468
     20 C         139.9407  140.4759  167.3410 C.ar    1  UNL1        0.0369
     21 C         139.3979  140.2122  165.9677 C.ar    1  UNL1        0.0005
     22 O         140.8932  142.1288  169.1048 O.3     1  UNL1       -0.4045
     23 C         140.0605  142.8653  170.1118 C.3     1  UNL1        0.5753
     24 F         139.2278  143.6019  171.1188 F       1  UNL1       -0.1328
     25 F         140.8792  144.1015  169.8845 F       1  UNL1       -0.1328
     26 F         139.2419  141.6291  170.3390 F       1  UNL1       -0.1328
     27 C         141.4732  144.9188  161.8238 C.3     1  UNL1        0.1007
     28 C         142.8198  144.3757  162.2003 C.3     1  UNL1        0.0673
     29 C         142.9293  143.2874  163.2268 C.ar    1  UNL1        0.0609
     30 C         143.4634  143.5969  164.5939 C.ar    1  UNL1        0.0171
     31 C         143.5729  142.5086  165.6204 C.ar    1  UNL1        0.0325
     32 C         143.1484  141.1108  165.2796 C.ar    1  UNL1        0.1592
     33 F         143.2580  140.0225  166.3061 F       1  UNL1       -0.2025
     34 C         142.6144  140.8014  163.9125 C.ar    1  UNL1        0.1280
     35 N         142.5049  141.8897  162.8861 N.ar    1  UNL1       -0.2457
@<TRIPOS>BOND
     1    11    12    2
     2    12    13   am
     3    13    15    1
     4    15    16    1
     5    16    17   ar
     6    17    18   ar
     7    18    19   ar
     8    19    22    1
     9    22    23    1
    10    23    24    1
    11    23    25    1
    12    23    26    1
    13    19    20   ar
    14    20    21   ar
    15    12     1    1
    16     1     2    1
    17     2     3   ar
    18     3     4   ar
    19     4     5   ar
    20     5     6   ar
    21     6     7   ar
    22     7     8    1
    23     8     9    2
    24     8    10   am
    25    10    27    1
    26    27    28    1
    27    28    29    1
    28    29    30   ar
    29    30    31   ar
    30    31    32   ar
    31    32    33    1
    32    32    34   ar
    33    34    35   ar
    34    21    16   ar
    35    10     1    1
    36    35    29   ar
    37     7     2   ar
    38    13    14    1
@<TRIPOS>MOLECULE
*****
 35 38 0 0 0
SMALL
GASTEIGER

@<TRIPOS>ATOM
      1 C         139.3551  143.4503  161.3211 C.3     1  UNL1        0.1751
      2 C         139.2242  142.7982  159.9766 C.ar    1  UNL1        0.0089
      3 C         138.4751  141.5815  159.5199 C.ar    1  UNL1       -0.0021
      4 C         138.5321  141.1620  158.0809 C.ar    1  UNL1       -0.0003
      5 C         139.3381  141.9591  157.0987 C.ar    1  UNL1        0.0001
      6 C         140.0872  143.1758  157.5553 C.ar    1  UNL1        0.0043
      7 C         140.0302  143.5953  158.9943 C.ar    1  UNL1        0.0516
      8 C         140.6593  144.7401  159.7317 C.2     1  UNL1        0.2493
      9 O         141.5493  145.7901  159.1357 O.2     1  UNL1       -0.2699
     10 N         140.2421  144.6505  161.1697 N.am    1  UNL1       -0.2657
     11 O         137.6152  143.7931  163.2197 O.2     1  UNL1       -0.2729
     12 C         138.7120  142.9841  162.5935 C.2     1  UNL1        0.2451
     13 N         139.1658  141.7087  163.2397 N.am    1  UNL1       -0.2988
     14 H         139.8857  141.1776  162.8287 H       1  UNL1        0.1498
     15 C         138.5227  141.2424  164.5121 C.3     1  UNL1        0.1164
     16 C         139.2644  141.3521  165.8112 C.ar    1  UNL1       -0.0024
     17 C         139.3562  140.1661  166.7250 C.ar    1  UNL1        0.0005
     18 C         140.0980  140.2759  168.0241 C.ar    1  UNL1        0.0369
     19 C         140.7480  141.5717  168.4096 C.ar    1  UNL1        0.1468
     20 C         140.6562  142.7577  167.4958 C.ar    1  UNL1        0.0369
     21 C         139.9144  142.6479  166.1966 C.ar    1  UNL1        0.0005
     22 O         141.4897  141.6814  169.7087 O.3     1  UNL1       -0.4045
     23 C         142.9351  142.0824  169.7156 C.3     1  UNL1        0.5753
     24 F         144.3805  142.4834  169.7225 F       1  UNL1       -0.1328
     25 F         143.3158  140.7186  169.2206 F       1  UNL1       -0.1328
     26 F         142.5543  143.4462  170.2106 F       1  UNL1       -0.1328
     27 C         140.6416  145.5952  162.2642 C.3     1  UNL1        0.1007
     28 C         141.2790  145.0671  163.5152 C.3     1  UNL1        0.0673
     29 C         142.5296  144.2434  163.4296 C.ar    1  UNL1        0.0609
     30 C         142.9743  143.4302  164.6091 C.ar    1  UNL1        0.0171
     31 C         144.2249  142.6065  164.5235 C.ar    1  UNL1        0.0325
     32 C         145.0309  142.5959  163.2584 C.ar    1  UNL1        0.1592
     33 F         146.2816  141.7721  163.1728 F       1  UNL1       -0.2025
     34 C         144.5863  143.4091  162.0790 C.ar    1  UNL1        0.1280
     35 N         143.3356  144.2328  162.1646 N.ar    1  UNL1       -0.2457
@<TRIPOS>BOND
     1    11    12    2
     2    12    13   am
     3    13    15    1
     4    15    16    1
     5    16    17   ar
     6    17    18   ar
     7    18    19   ar
     8    19    22    1
     9    22    23    1
    10    23    24    1
    11    23    25    1
    12    23    26    1
    13    19    20   ar
    14    20    21   ar
    15    12     1    1
    16     1     2    1
    17     2     3   ar
    18     3     4   ar
    19     4     5   ar
    20     5     6   ar
    21     6     7   ar
    22     7     8    1
    23     8     9    2
    24     8    10   am
    25    10    27    1
    26    27    28    1
    27    28    29    1
    28    29    30   ar
    29    30    31   ar
    30    31    32   ar
    31    32    33    1
    32    32    34   ar
    33    34    35   ar
    34    21    16   ar
    35    10     1    1
    36    35    29   ar
    37     7     2   ar
    38    13    14    1
@<TRIPOS>MOLECULE
*****
 35 38 0 0 0
SMALL
GASTEIGER

@<TRIPOS>ATOM
      1 C         140.6060  138.6165  160.8431 C.3     1  UNL1        0.1751
      2 C         141.2101  138.5314  159.4728 C.ar    1  UNL1        0.0089
      3 C         142.5450  138.0440  158.9929 C.ar    1  UNL1       -0.0021
      4 C         142.8755  138.0812  157.5303 C.ar    1  UNL1       -0.0003
      5 C         141.8710  138.6057  156.5475 C.ar    1  UNL1        0.0001
      6 C         140.5360  139.0930  157.0273 C.ar    1  UNL1        0.0043
      7 C         140.2055  139.0558  158.4900 C.ar    1  UNL1        0.0516
      8 C         138.9806  139.4651  159.2530 C.2     1  UNL1        0.2493
      9 O         137.7282  140.0443  158.6648 O.2     1  UNL1       -0.2699
     10 N         139.2281  139.1936  160.7073 N.am    1  UNL1       -0.2657
     11 O         140.8496  136.9244  162.7994 O.2     1  UNL1       -0.2729
     12 C         141.2642  138.1980  162.1244 C.2     1  UNL1        0.2451
     13 N         142.3372  139.0533  162.7306 N.am    1  UNL1       -0.2988
     14 H         142.6093  139.8892  162.2875 H       1  UNL1        0.1498
     15 C         142.9954  138.6348  164.0118 C.3     1  UNL1        0.1164
     16 C         142.4299  139.0831  165.3267 C.ar    1  UNL1       -0.0024
     17 C         141.0664  139.7056  165.3837 C.ar    1  UNL1        0.0005
     18 C         140.5009  140.1539  166.6987 C.ar    1  UNL1        0.0369
     19 C         141.2990  139.9799  167.9568 C.ar    1  UNL1        0.1468
     20 C         142.6625  139.3574  167.8999 C.ar    1  UNL1        0.0369
     21 C         143.2280  138.9090  166.5848 C.ar    1  UNL1        0.0005
     22 O         140.7335  140.4282  169.2718 O.3     1  UNL1       -0.4045
     23 C         140.2953  141.8512  169.4537 C.3     1  UNL1        0.5753
     24 F         139.8572  143.2742  169.6357 F       1  UNL1       -0.1328
     25 F         141.6058  142.3256  168.8992 F       1  UNL1       -0.1328
     26 F         138.9848  141.3768  170.0082 F       1  UNL1       -0.1328
     27 C         138.2665  139.4535  161.8288 C.3     1  UNL1        0.1007
     28 C         137.3970  140.6755  161.8032 C.3     1  UNL1        0.0673
     29 C         137.7248  141.8477  162.6798 C.ar    1  UNL1        0.0609
     30 C         138.1208  141.6274  164.1098 C.ar    1  UNL1        0.0171
     31 C         138.4486  142.7997  164.9864 C.ar    1  UNL1        0.0325
     32 C         138.3805  144.1922  164.4330 C.ar    1  UNL1        0.1592
     33 F         138.7083  145.3645  165.3095 F       1  UNL1       -0.2025
     34 C         137.9845  144.4125  163.0030 C.ar    1  UNL1        0.1280
     35 N         137.6567  143.2402  162.1265 N.ar    1  UNL1       -0.2457
@<TRIPOS>BOND
     1    11    12    2
     2    12    13   am
     3    13    15    1
     4    15    16    1
     5    16    17   ar
     6    17    18   ar
     7    18    19   ar
     8    19    22    1
     9    22    23    1
    10    23    24    1
    11    23    25    1
    12    23    26    1
    13    19    20   ar
    14    20    21   ar
    15    12     1    1
    16     1     2    1
    17     2     3   ar
    18     3     4   ar
    19     4     5   ar
    20     5     6   ar
    21     6     7   ar
    22     7     8    1
    23     8     9    2
    24     8    10   am
    25    10    27    1
    26    27    28    1
    27    28    29    1
    28    29    30   ar
    29    30    31   ar
    30    31    32   ar
    31    32    33    1
    32    32    34   ar
    33    34    35   ar
    34    21    16   ar
    35    10     1    1
    36    35    29   ar
    37     7     2   ar
    38    13    14    1
@<TRIPOS>MOLECULE
*****
 35 38 0 0 0
SMALL
GASTEIGER

@<TRIPOS>ATOM
      1 C         140.7968  138.6141  161.6977 C.3     1  UNL1        0.1751
      2 C         141.1972  138.3685  160.2732 C.ar    1  UNL1        0.0089
      3 C         142.4827  137.8997  159.6585 C.ar    1  UNL1       -0.0021
      4 C         142.5896  137.7446  158.1704 C.ar    1  UNL1       -0.0003
      5 C         141.4111  138.0582  157.2970 C.ar    1  UNL1        0.0001
      6 C         140.1257  138.5270  157.9117 C.ar    1  UNL1        0.0043
      7 C         140.0187  138.6821  159.3998 C.ar    1  UNL1        0.0516
      8 C         138.8900  139.1216  160.2846 C.2     1  UNL1        0.2493
      9 O         137.5208  139.5311  159.8291 O.2     1  UNL1       -0.2699
     10 N         139.3709  139.0796  161.7048 N.am    1  UNL1       -0.2657
     11 O         141.4498  137.2552  163.8136 O.2     1  UNL1       -0.2729
     12 C         141.6692  138.4271  162.9035 C.2     1  UNL1        0.2451
     13 N         142.7612  139.4122  163.1993 N.am    1  UNL1       -0.2988
     14 H         142.9052  140.1814  162.6020 H       1  UNL1        0.1498
     15 C         143.6336  139.2252  164.4051 C.3     1  UNL1        0.1164
     16 C         143.2476  139.8483  165.7138 C.ar    1  UNL1       -0.0024
     17 C         142.9237  138.9785  166.8921 C.ar    1  UNL1        0.0005
     18 C         142.5378  139.6017  168.2008 C.ar    1  UNL1        0.0369
     19 C         142.4758  141.0947  168.3313 C.ar    1  UNL1        0.1468
     20 C         142.7997  141.9646  167.1530 C.ar    1  UNL1        0.0369
     21 C         143.1856  141.3414  165.8442 C.ar    1  UNL1        0.0005
     22 O         142.0898  141.7178  169.6400 O.3     1  UNL1       -0.4045
     23 C         141.3039  142.9952  169.6597 C.3     1  UNL1        0.5753
     24 F         140.5179  144.2727  169.6794 F       1  UNL1       -0.1328
     25 F         140.1443  142.2917  169.0192 F       1  UNL1       -0.1328
     26 F         142.4635  143.6988  170.3002 F       1  UNL1       -0.1328
     27 C         138.5669  139.4397  162.9189 C.3     1  UNL1        0.1007
     28 C         139.2559  139.9447  164.1519 C.3     1  UNL1        0.0673
     29 C         139.8111  141.3378  164.1835 C.ar    1  UNL1        0.0609
     30 C         139.5000  142.2431  165.3384 C.ar    1  UNL1        0.0171
     31 C         140.0552  143.6362  165.3701 C.ar    1  UNL1        0.0325
     32 C         140.9216  144.1240  164.2468 C.ar    1  UNL1        0.1592
     33 F         141.4768  145.5171  164.2785 F       1  UNL1       -0.2025
     34 C         141.2326  143.2187  163.0920 C.ar    1  UNL1        0.1280
     35 N         140.6774  141.8256  163.0604 N.ar    1  UNL1       -0.2457
@<TRIPOS>BOND
     1    11    12    2
     2    12    13   am
     3    13    15    1
     4    15    16    1
     5    16    17   ar
     6    17    18   ar
     7    18    19   ar
     8    19    22    1
     9    22    23    1
    10    23    24    1
    11    23    25    1
    12    23    26    1
    13    19    20   ar
    14    20    21   ar
    15    12     1    1
    16     1     2    1
    17     2     3   ar
    18     3     4   ar
    19     4     5   ar
    20     5     6   ar
    21     6     7   ar
    22     7     8    1
    23     8     9    2
    24     8    10   am
    25    10    27    1
    26    27    28    1
    27    28    29    1
    28    29    30   ar
    29    30    31   ar
    30    31    32   ar
    31    32    33    1
    32    32    34   ar
    33    34    35   ar
    34    21    16   ar
    35    10     1    1
    36    35    29   ar
    37     7     2   ar
    38    13    14    1
@<TRIPOS>MOLECULE
*****
 35 38 0 0 0
SMALL
GASTEIGER

@<TRIPOS>ATOM
      1 C         141.1979  140.6910  166.6082 C.3     1  UNL1        0.1751
      2 C         141.0064  141.4431  167.8918 C.ar    1  UNL1        0.0089
      3 C         141.7606  142.5833  168.5091 C.ar    1  UNL1       -0.0021
      4 C         141.3265  143.1408  169.8322 C.ar    1  UNL1       -0.0003
      5 C         140.1382  142.5580  170.5381 C.ar    1  UNL1        0.0001
      6 C         139.3839  141.4178  169.9208 C.ar    1  UNL1        0.0043
      7 C         139.8181  140.8604  168.5977 C.ar    1  UNL1        0.0516
      8 C         139.2751  139.7481  167.7503 C.2     1  UNL1        0.2493
      9 O         138.0878  138.8911  168.0754 O.2     1  UNL1       -0.2699
     10 N         140.1278  139.6434  166.5207 N.am    1  UNL1       -0.2657
     11 O         142.2340  142.1862  164.7533 O.2     1  UNL1       -0.2729
     12 C         142.2710  140.9423  165.5907 C.2     1  UNL1        0.2451
     13 N         143.3811  139.9497  165.4106 N.am    1  UNL1       -0.2988
     14 H         143.4054  139.1332  165.9602 H       1  UNL1        0.1498
     15 C         144.4542  140.2010  164.3931 C.3     1  UNL1        0.1164
     16 C         144.2097  139.8758  162.9494 C.ar    1  UNL1       -0.0024
     17 C         144.3267  140.9494  161.9084 C.ar    1  UNL1        0.0005
     18 C         144.0822  140.6241  160.4647 C.ar    1  UNL1        0.0369
     19 C         143.7206  139.2252  160.0618 C.ar    1  UNL1        0.1468
     20 C         143.6036  138.1515  161.1028 C.ar    1  UNL1        0.0369
     21 C         143.8482  138.4768  162.5466 C.ar    1  UNL1        0.0005
     22 O         143.4761  138.8999  158.6181 O.3     1  UNL1       -0.4045
     23 C         142.1749  138.2833  158.1981 C.3     1  UNL1        0.5753
     24 F         140.8736  137.6666  157.7781 F       1  UNL1       -0.1328
     25 F         142.9085  137.0719  157.7037 F       1  UNL1       -0.1328
     26 F         141.4413  139.4946  158.6926 F       1  UNL1       -0.1328
     27 C         139.9430  138.6633  165.4004 C.3     1  UNL1        0.1007
     28 C         138.8759  138.8927  164.3715 C.3     1  UNL1        0.0673
     29 C         139.0536  139.9590  163.3316 C.ar    1  UNL1        0.0609
     30 C         140.3390  140.0512  162.5639 C.ar    1  UNL1        0.0171
     31 C         140.5166  141.1176  161.5240 C.ar    1  UNL1        0.0325
     32 C         139.4089  142.0917  161.2518 C.ar    1  UNL1        0.1592
     33 F         139.5865  143.1580  160.2119 F       1  UNL1       -0.2025
     34 C         138.1235  141.9995  162.0195 C.ar    1  UNL1        0.1280
     35 N         137.9459  140.9331  163.0594 N.ar    1  UNL1       -0.2457
@<TRIPOS>BOND
     1    11    12    2
     2    12    13   am
     3    13    15    1
     4    15    16    1
     5    16    17   ar
     6    17    18   ar
     7    18    19   ar
     8    19    22    1
     9    22    23    1
    10    23    24    1
    11    23    25    1
    12    23    26    1
    13    19    20   ar
    14    20    21   ar
    15    12     1    1
    16     1     2    1
    17     2     3   ar
    18     3     4   ar
    19     4     5   ar
    20     5     6   ar
    21     6     7   ar
    22     7     8    1
    23     8     9    2
    24     8    10   am
    25    10    27    1
    26    27    28    1
    27    28    29    1
    28    29    30   ar
    29    30    31   ar
    30    31    32   ar
    31    32    33    1
    32    32    34   ar
    33    34    35   ar
    34    21    16   ar
    35    10     1    1
    36    35    29   ar
    37     7     2   ar
    38    13    14    1
@<TRIPOS>MOLECULE
*****
 35 38 0 0 0
SMALL
GASTEIGER

@<TRIPOS>ATOM
      1 C         140.8900  140.8424  166.7218 C.3     1  UNL1        0.1751
      2 C         141.0636  140.9351  168.2088 C.ar    1  UNL1        0.0089
      3 C         140.3801  141.7724  169.2489 C.ar    1  UNL1       -0.0021
      4 C         140.7737  141.6462  170.6908 C.ar    1  UNL1       -0.0003
      5 C         141.8508  140.6827  171.0926 C.ar    1  UNL1        0.0001
      6 C         142.5343  139.8454  170.0526 C.ar    1  UNL1        0.0043
      7 C         142.1407  139.9716  168.6107 C.ar    1  UNL1        0.0516
      8 C         142.6327  139.2833  167.3721 C.2     1  UNL1        0.2493
      9 O         143.7088  138.2401  167.3115 O.2     1  UNL1       -0.2699
     10 N         141.8597  139.8215  166.2046 N.am    1  UNL1       -0.2657
     11 O         138.6926  140.9676  165.3412 O.2     1  UNL1       -0.2729
     12 C         139.9173  141.6319  165.8968 C.2     1  UNL1        0.2451
     13 N         140.1694  143.0859  165.6274 N.am    1  UNL1       -0.2988
     14 H         140.9733  143.5219  165.9920 H       1  UNL1        0.1498
     15 C         139.1968  143.8754  164.8024 C.3     1  UNL1        0.1164
     16 C         139.4254  144.0426  163.3294 C.ar    1  UNL1       -0.0024
     17 C         139.2465  142.8748  162.4052 C.ar    1  UNL1        0.0005
     18 C         139.4752  143.0421  160.9322 C.ar    1  UNL1        0.0369
     19 C         139.8828  144.3773  160.3833 C.ar    1  UNL1        0.1468
     20 C         140.0617  145.5451  161.3075 C.ar    1  UNL1        0.0369
     21 C         139.8330  145.3778  162.7806 C.ar    1  UNL1        0.0005
     22 O         140.1114  144.5446  158.9104 O.3     1  UNL1       -0.4045
     23 C         141.2407  145.4009  158.4191 C.3     1  UNL1        0.5753
     24 F         142.3699  146.2573  157.9278 F       1  UNL1       -0.1328
     25 F         140.2560  146.3230  157.7631 F       1  UNL1       -0.1328
     26 F         142.2253  144.4789  159.0751 F       1  UNL1       -0.1328
     27 C         142.0271  139.4109  164.7717 C.3     1  UNL1        0.1007
     28 C         143.1699  139.9523  163.9650 C.3     1  UNL1        0.0673
     29 C         143.3555  141.4345  163.8279 C.ar    1  UNL1        0.0609
     30 C         142.8739  142.1398  162.5948 C.ar    1  UNL1        0.0171
     31 C         143.0594  143.6219  162.4577 C.ar    1  UNL1        0.0325
     32 C         143.7266  144.3988  163.5539 C.ar    1  UNL1        0.1592
     33 F         143.9122  145.8809  163.4169 F       1  UNL1       -0.2025
     34 C         144.2082  143.6934  164.7870 C.ar    1  UNL1        0.1280
     35 N         144.0226  142.2113  164.9240 N.ar    1  UNL1       -0.2457
@<TRIPOS>BOND
     1    11    12    2
     2    12    13   am
     3    13    15    1
     4    15    16    1
     5    16    17   ar
     6    17    18   ar
     7    18    19   ar
     8    19    22    1
     9    22    23    1
    10    23    24    1
    11    23    25    1
    12    23    26    1
    13    19    20   ar
    14    20    21   ar
    15    12     1    1
    16     1     2    1
    17     2     3   ar
    18     3     4   ar
    19     4     5   ar
    20     5     6   ar
    21     6     7   ar
    22     7     8    1
    23     8     9    2
    24     8    10   am
    25    10    27    1
    26    27    28    1
    27    28    29    1
    28    29    30   ar
    29    30    31   ar
    30    31    32   ar
    31    32    33    1
    32    32    34   ar
    33    34    35   ar
    34    21    16   ar
    35    10     1    1
    36    35    29   ar
    37     7     2   ar
    38    13    14    1
@<TRIPOS>MOLECULE
*****
 35 38 0 0 0
SMALL
GASTEIGER

@<TRIPOS>ATOM
      1 C         139.0420  142.4368  161.7258 C.3     1  UNL1        0.1751
      2 C         139.5789  142.0597  160.3768 C.ar    1  UNL1        0.0089
      3 C         139.6298  140.7502  159.6471 C.ar    1  UNL1       -0.0021
      4 C         140.2412  140.6772  158.2793 C.ar    1  UNL1       -0.0003
      5 C         140.8016  141.9136  157.6413 C.ar    1  UNL1        0.0001
      6 C         140.7506  143.2231  158.3710 C.ar    1  UNL1        0.0043
      7 C         140.1393  143.2962  159.7388 C.ar    1  UNL1        0.0516
      8 C         139.9487  144.4374  160.6934 C.2     1  UNL1        0.2493
      9 O         140.3636  145.8600  160.4608 O.2     1  UNL1       -0.2699
     10 N         139.2706  143.9063  161.9214 N.am    1  UNL1       -0.2657
     11 O         136.9069  141.5600  162.9183 O.2     1  UNL1       -0.2729
     12 C         138.3909  141.5075  162.7068 C.2     1  UNL1        0.2451
     13 N         139.2239  140.5256  163.4764 N.am    1  UNL1       -0.2988
     14 H         140.1980  140.4911  163.3375 H       1  UNL1        0.1498
     15 C         138.5728  139.5963  164.4574 C.3     1  UNL1        0.1164
     16 C         138.7782  139.7962  165.9297 C.ar    1  UNL1       -0.0024
     17 C         139.8049  140.7748  166.4177 C.ar    1  UNL1        0.0005
     18 C         140.0103  140.9746  167.8901 C.ar    1  UNL1        0.0369
     19 C         139.1889  140.1960  168.8745 C.ar    1  UNL1        0.1468
     20 C         138.1621  139.2175  168.3865 C.ar    1  UNL1        0.0369
     21 C         137.9567  139.0176  166.9141 C.ar    1  UNL1        0.0005
     22 O         139.3943  140.3959  170.3469 O.3     1  UNL1       -0.4045
     23 C         140.7817  140.5435  170.8974 C.3     1  UNL1        0.5753
     24 F         142.1692  140.6911  171.4479 F       1  UNL1       -0.1328
     25 F         141.1104  139.1527  170.4419 F       1  UNL1       -0.1328
     26 F         140.4531  141.9344  171.3529 F       1  UNL1       -0.1328
     27 C         138.8882  144.7046  163.1324 C.3     1  UNL1        0.1007
     28 C         139.8125  144.7669  164.3122 C.3     1  UNL1        0.0673
     29 C         141.2171  144.2543  164.1924 C.ar    1  UNL1        0.0609
     30 C         142.3362  145.2006  163.8730 C.ar    1  UNL1        0.0171
     31 C         143.7408  144.6879  163.7532 C.ar    1  UNL1        0.0325
     32 C         144.0262  143.2289  163.9530 C.ar    1  UNL1        0.1592
     33 F         145.4308  142.7162  163.8332 F       1  UNL1       -0.2025
     34 C         142.9071  142.2826  164.2724 C.ar    1  UNL1        0.1280
     35 N         141.5025  142.7953  164.3921 N.ar    1  UNL1       -0.2457
@<TRIPOS>BOND
     1    11    12    2
     2    12    13   am
     3    13    15    1
     4    15    16    1
     5    16    17   ar
     6    17    18   ar
     7    18    19   ar
     8    19    22    1
     9    22    23    1
    10    23    24    1
    11    23    25    1
    12    23    26    1
    13    19    20   ar
    14    20    21   ar
    15    12     1    1
    16     1     2    1
    17     2     3   ar
    18     3     4   ar
    19     4     5   ar
    20     5     6   ar
    21     6     7   ar
    22     7     8    1
    23     8     9    2
    24     8    10   am
    25    10    27    1
    26    27    28    1
    27    28    29    1
    28    29    30   ar
    29    30    31   ar
    30    31    32   ar
    31    32    33    1
    32    32    34   ar
    33    34    35   ar
    34    21    16   ar
    35    10     1    1
    36    35    29   ar
    37     7     2   ar
    38    13    14    1
