@<TRIPOS>MOLECULE
*****
 30 34 0 0 0
SMALL
GASTEIGER

@<TRIPOS>ATOM
      1 C         139.2545  140.4886  165.7322 C.ar    1  UNL1        0.1482
      2 C         138.6329  139.4955  166.6688 C.ar    1  UNL1        0.0581
      3 C         138.2977  138.1159  166.1847 C.ar    1  UNL1        0.1020
      4 N         138.5842  137.7294  164.7640 N.ar    1  UNL1       -0.2436
      5 C         139.2058  138.7225  163.8273 C.ar    1  UNL1        0.0842
      6 C         139.4923  138.3359  162.4066 C.ar    1  UNL1        0.0193
      7 C         140.1140  139.3290  161.4699 C.ar    1  UNL1        0.0045
      8 C         140.4492  140.7087  161.9540 C.ar    1  UNL1        0.0003
      9 C         140.1627  141.0952  163.3748 C.ar    1  UNL1        0.0045
     10 C         139.5410  140.1020  164.3114 C.ar    1  UNL1        0.0522
     11 C         140.4005  138.9425  160.0492 C.ar    1  UNL1        0.0397
     12 C         139.4330  139.0102  158.9048 C.ar    1  UNL1        0.1216
     13 N         140.1393  138.5299  157.6717 N.ar    1  UNL1       -0.1677
     14 N         141.5433  138.1654  158.0540 N.ar    1  UNL1       -0.2513
     15 C         141.7046  138.4204  159.5233 C.ar    1  UNL1        0.0965
     16 C         142.6002  137.6384  157.1293 C.3     1  UNL1        0.1080
     17 C         143.4265  138.5896  156.3153 C.3     1  UNL1        0.0415
     18 C         144.4835  138.0627  155.3905 C.3     1  UNL1        0.0706
     19 N         144.7141  136.5847  155.2797 N.3     1  UNL1       -0.2974
     20 C         143.8877  135.6335  156.0937 C.3     1  UNL1        0.0706
     21 C         142.8308  136.1604  157.0185 C.3     1  UNL1        0.0415
     22 H         145.6883  136.4189  155.5324 H       1  UNL1        0.1232
     23 O         139.5897  141.8682  166.2163 O.3     1  UNL1       -0.4534
     24 C         144.1819  142.6903  169.9893 C.3     1  UNL1        0.0310
     25 C         143.0339  142.4848  169.0461 C.ar    1  UNL1       -0.0217
     26 C         143.2958  142.1474  167.6082 C.ar    1  UNL1       -0.0011
     27 C         142.1477  141.9419  166.6649 C.ar    1  UNL1        0.0372
     28 C         140.7378  142.0737  167.1595 C.ar    1  UNL1        0.1453
     29 C         140.4759  142.4111  168.5975 C.ar    1  UNL1        0.0372
     30 C         141.6239  142.6166  169.5408 C.ar    1  UNL1       -0.0011
@<TRIPOS>BOND
     1    24    25    1
     2    25    26   ar
     3    26    27   ar
     4    27    28   ar
     5    28    23    1
     6    23     1    1
     7     1     2   ar
     8     2     3   ar
     9     3     4   ar
    10     4     5   ar
    11     5     6   ar
    12     6     7   ar
    13     7    11    1
    14    11    12   ar
    15    12    13   ar
    16    13    14   ar
    17    14    16    1
    18    16    17    1
    19    17    18    1
    20    18    19    1
    21    19    20    1
    22    20    21    1
    23    14    15   ar
    24     7     8   ar
    25     8     9   ar
    26     9    10   ar
    27    28    29   ar
    28    29    30   ar
    29    30    25   ar
    30    10     1   ar
    31    10     5   ar
    32    15    11   ar
    33    21    16    1
    34    19    22    1
@<TRIPOS>MOLECULE
*****
 30 34 0 0 0
SMALL
GASTEIGER

@<TRIPOS>ATOM
      1 C         143.7690  142.5792  164.5984 C.ar    1  UNL1        0.1482
      2 C         143.8624  144.0752  164.6551 C.ar    1  UNL1        0.0581
      3 C         143.8815  144.8740  163.3857 C.ar    1  UNL1        0.1020
      4 N         143.8072  144.1769  162.0596 N.ar    1  UNL1       -0.2436
      5 C         143.7138  142.6809  162.0029 C.ar    1  UNL1        0.0842
      6 C         143.6396  141.9837  160.6768 C.ar    1  UNL1        0.0193
      7 C         143.5462  140.4878  160.6202 C.ar    1  UNL1        0.0045
      8 C         143.5271  139.6888  161.8896 C.ar    1  UNL1        0.0003
      9 C         143.6013  140.3860  163.2157 C.ar    1  UNL1        0.0045
     10 C         143.6947  141.8820  163.2723 C.ar    1  UNL1        0.0522
     11 C         143.4720  139.7906  159.2941 C.ar    1  UNL1        0.0397
     12 C         144.1498  140.2274  158.0292 C.ar    1  UNL1        0.1216
     13 N         143.8035  139.2410  156.9534 N.ar    1  UNL1       -0.1677
     14 N         142.9118  138.1946  157.5534 N.ar    1  UNL1       -0.2513
     15 C         142.7069  138.5343  159.0000 C.ar    1  UNL1        0.0965
     16 C         142.3277  137.0157  156.8333 C.3     1  UNL1        0.1080
     17 C         142.9908  135.6737  156.9304 C.3     1  UNL1        0.0415
     18 C         142.4066  134.4946  156.2102 C.3     1  UNL1        0.0706
     19 N         141.1594  134.6576  155.3930 N.3     1  UNL1       -0.2974
     20 C         140.4963  135.9996  155.2959 C.3     1  UNL1        0.0706
     21 C         141.0804  137.1786  156.0161 C.3     1  UNL1        0.0415
     22 H         140.4681  134.0148  155.7795 H       1  UNL1        0.1232
     23 O         143.7498  141.7803  165.8679 O.3     1  UNL1       -0.4534
     24 C         140.0399  143.3191  170.3252 C.3     1  UNL1        0.0310
     25 C         140.9674  142.9344  169.2109 C.ar    1  UNL1       -0.0217
     26 C         140.4364  142.7633  167.8185 C.ar    1  UNL1       -0.0011
     27 C         141.3639  142.3786  166.7041 C.ar    1  UNL1        0.0372
     28 C         142.8223  142.1650  166.9822 C.ar    1  UNL1        0.1453
     29 C         143.3533  142.3360  168.3747 C.ar    1  UNL1        0.0372
     30 C         142.4258  142.7207  169.4890 C.ar    1  UNL1       -0.0011
@<TRIPOS>BOND
     1    24    25    1
     2    25    26   ar
     3    26    27   ar
     4    27    28   ar
     5    28    23    1
     6    23     1    1
     7     1     2   ar
     8     2     3   ar
     9     3     4   ar
    10     4     5   ar
    11     5     6   ar
    12     6     7   ar
    13     7    11    1
    14    11    12   ar
    15    12    13   ar
    16    13    14   ar
    17    14    16    1
    18    16    17    1
    19    17    18    1
    20    18    19    1
    21    19    20    1
    22    20    21    1
    23    14    15   ar
    24     7     8   ar
    25     8     9   ar
    26     9    10   ar
    27    28    29   ar
    28    29    30   ar
    29    30    25   ar
    30    10     1   ar
    31    10     5   ar
    32    15    11   ar
    33    21    16    1
    34    19    22    1
@<TRIPOS>MOLECULE
*****
 30 34 0 0 0
SMALL
GASTEIGER

@<TRIPOS>ATOM
      1 C         139.7907  143.2185  164.3744 C.ar    1  UNL1        0.1482
      2 C         138.6326  144.1709  164.4180 C.ar    1  UNL1        0.0581
      3 C         137.6672  144.2306  163.2716 C.ar    1  UNL1        0.1020
      4 N         137.8598  143.3380  162.0816 N.ar    1  UNL1       -0.2436
      5 C         139.0178  142.3856  162.0380 C.ar    1  UNL1        0.0842
      6 C         139.2104  141.4930  160.8479 C.ar    1  UNL1        0.0193
      7 C         140.3685  140.5407  160.8043 C.ar    1  UNL1        0.0045
      8 C         141.3340  140.4809  161.9508 C.ar    1  UNL1        0.0003
      9 C         141.1414  141.3735  163.1408 C.ar    1  UNL1        0.0045
     10 C         139.9833  142.3259  163.1844 C.ar    1  UNL1        0.0522
     11 C         140.5611  139.6481  159.6143 C.ar    1  UNL1        0.0397
     12 C         139.4708  139.0179  158.7992 C.ar    1  UNL1        0.1216
     13 N         140.1137  138.2092  157.7116 N.ar    1  UNL1       -0.1677
     14 N         141.6012  138.3397  157.8545 N.ar    1  UNL1       -0.2513
     15 C         141.8777  139.2289  159.0304 C.ar    1  UNL1        0.0965
     16 C         142.6313  137.6943  156.9757 C.3     1  UNL1        0.1080
     17 C         142.8058  136.2045  156.9945 C.3     1  UNL1        0.0415
     18 C         143.8359  135.5590  156.1157 C.3     1  UNL1        0.0706
     19 N         144.6914  136.4032  155.2182 N.3     1  UNL1       -0.2974
     20 C         144.5168  137.8929  155.1995 C.3     1  UNL1        0.0706
     21 C         143.4867  138.5384  156.0782 C.3     1  UNL1        0.0415
     22 H         144.5311  136.0759  154.2655 H       1  UNL1        0.1232
     23 O         140.7562  143.1588  165.5209 O.3     1  UNL1       -0.4534
     24 C         139.3778  140.0168  170.4430 C.3     1  UNL1        0.0310
     25 C         139.7224  140.8023  169.2125 C.ar    1  UNL1       -0.0217
     26 C         139.6095  140.1645  167.8596 C.ar    1  UNL1       -0.0011
     27 C         139.9541  140.9500  166.6290 C.ar    1  UNL1        0.0372
     28 C         140.4116  142.3733  166.7514 C.ar    1  UNL1        0.1453
     29 C         140.5245  143.0111  168.1044 C.ar    1  UNL1        0.0372
     30 C         140.1799  142.2256  169.3349 C.ar    1  UNL1       -0.0011
@<TRIPOS>BOND
     1    24    25    1
     2    25    26   ar
     3    26    27   ar
     4    27    28   ar
     5    28    23    1
     6    23     1    1
     7     1     2   ar
     8     2     3   ar
     9     3     4   ar
    10     4     5   ar
    11     5     6   ar
    12     6     7   ar
    13     7    11    1
    14    11    12   ar
    15    12    13   ar
    16    13    14   ar
    17    14    16    1
    18    16    17    1
    19    17    18    1
    20    18    19    1
    21    19    20    1
    22    20    21    1
    23    14    15   ar
    24     7     8   ar
    25     8     9   ar
    26     9    10   ar
    27    28    29   ar
    28    29    30   ar
    29    30    25   ar
    30    10     1   ar
    31    10     5   ar
    32    15    11   ar
    33    21    16    1
    34    19    22    1
@<TRIPOS>MOLECULE
*****
 30 34 0 0 0
SMALL
GASTEIGER

@<TRIPOS>ATOM
      1 C         138.7771  139.7623  159.7032 C.ar    1  UNL1        0.1482
      2 C         138.6510  141.0819  159.0014 C.ar    1  UNL1        0.0581
      3 C         138.5693  142.3502  159.7981 C.ar    1  UNL1        0.1020
      4 N         138.6138  142.2989  161.2965 N.ar    1  UNL1       -0.2436
      5 C         138.7400  140.9792  161.9983 C.ar    1  UNL1        0.0842
      6 C         138.7845  140.9278  163.4968 C.ar    1  UNL1        0.0193
      7 C         138.9107  139.6082  164.1986 C.ar    1  UNL1        0.0045
      8 C         138.9924  138.3398  163.4019 C.ar    1  UNL1        0.0003
      9 C         138.9478  138.3912  161.9035 C.ar    1  UNL1        0.0045
     10 C         138.8217  139.7109  161.2017 C.ar    1  UNL1        0.0522
     11 C         138.9552  139.5568  165.6970 C.ar    1  UNL1        0.0397
     12 C         137.9275  138.9249  166.5885 C.ar    1  UNL1        0.1216
     13 N         138.3724  139.1059  168.0096 N.ar    1  UNL1       -0.1677
     14 N         139.6750  139.8497  167.9964 N.ar    1  UNL1       -0.2513
     15 C         140.0351  140.1283  166.5672 C.ar    1  UNL1        0.0965
     16 C         140.4765  140.2452  169.2009 C.3     1  UNL1        0.1080
     17 C         141.7517  139.5240  169.5230 C.3     1  UNL1        0.0415
     18 C         142.5534  139.9195  170.7276 C.3     1  UNL1        0.0706
     19 N         142.0798  141.0363  171.6099 N.3     1  UNL1       -0.2974
     20 C         140.8047  141.7575  171.2878 C.3     1  UNL1        0.0706
     21 C         140.0030  141.3620  170.0832 C.3     1  UNL1        0.0415
     22 H         142.8204  141.7377  171.6201 H       1  UNL1        0.1232
     23 O         138.8588  138.4939  158.9065 O.3     1  UNL1       -0.4534
     24 C         143.7981  137.2579  155.7324 C.3     1  UNL1        0.0310
     25 C         142.5633  137.5669  156.5259 C.ar    1  UNL1       -0.0217
     26 C         141.2084  137.3354  155.9254 C.ar    1  UNL1       -0.0011
     27 C         139.9736  137.6444  156.7190 C.ar    1  UNL1        0.0372
     28 C         140.0937  138.1849  158.1130 C.ar    1  UNL1        0.1453
     29 C         141.4486  138.4164  158.7136 C.ar    1  UNL1        0.0372
     30 C         142.6834  138.1074  157.9200 C.ar    1  UNL1       -0.0011
@<TRIPOS>BOND
     1    24    25    1
     2    25    26   ar
     3    26    27   ar
     4    27    28   ar
     5    28    23    1
     6    23     1    1
     7     1     2   ar
     8     2     3   ar
     9     3     4   ar
    10     4     5   ar
    11     5     6   ar
    12     6     7   ar
    13     7    11    1
    14    11    12   ar
    15    12    13   ar
    16    13    14   ar
    17    14    16    1
    18    16    17    1
    19    17    18    1
    20    18    19    1
    21    19    20    1
    22    20    21    1
    23    14    15   ar
    24     7     8   ar
    25     8     9   ar
    26     9    10   ar
    27    28    29   ar
    28    29    30   ar
    29    30    25   ar
    30    10     1   ar
    31    10     5   ar
    32    15    11   ar
    33    21    16    1
    34    19    22    1
@<TRIPOS>MOLECULE
*****
 30 34 0 0 0
SMALL
GASTEIGER

@<TRIPOS>ATOM
      1 C         143.5364  139.8221  163.5292 C.ar    1  UNL1        0.1482
      2 C         144.8967  140.0020  164.1351 C.ar    1  UNL1        0.0581
      3 C         145.6538  141.2777  163.9132 C.ar    1  UNL1        0.1020
      4 N         145.0507  142.3735  163.0853 N.ar    1  UNL1       -0.2436
      5 C         143.6904  142.1936  162.4793 C.ar    1  UNL1        0.0842
      6 C         143.0873  143.2895  161.6515 C.ar    1  UNL1        0.0193
      7 C         141.7270  143.1096  161.0455 C.ar    1  UNL1        0.0045
      8 C         140.9698  141.8338  161.2674 C.ar    1  UNL1        0.0003
      9 C         141.5729  140.7380  162.0953 C.ar    1  UNL1        0.0045
     10 C         142.9333  140.9179  162.7013 C.ar    1  UNL1        0.0522
     11 C         141.1239  144.2054  160.2176 C.ar    1  UNL1        0.0397
     12 C         140.3606  145.3866  160.7396 C.ar    1  UNL1        0.1216
     13 N         139.9431  146.2236  159.5669 N.ar    1  UNL1       -0.1677
     14 N         140.4483  145.5598  158.3203 N.ar    1  UNL1       -0.2513
     15 C         141.1780  144.3125  158.7224 C.ar    1  UNL1        0.0965
     16 C         140.2572  146.0562  156.9178 C.3     1  UNL1        0.1080
     17 C         139.2267  147.1069  156.6280 C.3     1  UNL1        0.0415
     18 C         139.0356  147.6034  155.2255 C.3     1  UNL1        0.0706
     19 N         139.8750  147.0490  154.1128 N.3     1  UNL1       -0.2974
     20 C         140.9055  145.9983  154.4026 C.3     1  UNL1        0.0706
     21 C         141.0966  145.5018  155.8051 C.3     1  UNL1        0.0415
     22 H         140.3683  147.8380  153.6950 H       1  UNL1        0.1232
     23 O         142.7792  138.5464  163.7511 O.3     1  UNL1       -0.4534
     24 C         137.7146  138.5847  166.9679 C.3     1  UNL1        0.0310
     25 C         138.9807  138.5752  166.1637 C.ar    1  UNL1       -0.0217
     26 C         139.1241  137.6375  165.0017 C.ar    1  UNL1       -0.0011
     27 C         140.3903  137.6279  164.1975 C.ar    1  UNL1        0.0372
     28 C         141.5130  138.5560  164.5553 C.ar    1  UNL1        0.1453
     29 C         141.3697  139.4937  165.7173 C.ar    1  UNL1        0.0372
     30 C         140.1035  139.5033  166.5215 C.ar    1  UNL1       -0.0011
@<TRIPOS>BOND
     1    24    25    1
     2    25    26   ar
     3    26    27   ar
     4    27    28   ar
     5    28    23    1
     6    23     1    1
     7     1     2   ar
     8     2     3   ar
     9     3     4   ar
    10     4     5   ar
    11     5     6   ar
    12     6     7   ar
    13     7    11    1
    14    11    12   ar
    15    12    13   ar
    16    13    14   ar
    17    14    16    1
    18    16    17    1
    19    17    18    1
    20    18    19    1
    21    19    20    1
    22    20    21    1
    23    14    15   ar
    24     7     8   ar
    25     8     9   ar
    26     9    10   ar
    27    28    29   ar
    28    29    30   ar
    29    30    25   ar
    30    10     1   ar
    31    10     5   ar
    32    15    11   ar
    33    21    16    1
    34    19    22    1
@<TRIPOS>MOLECULE
*****
 30 34 0 0 0
SMALL
GASTEIGER

@<TRIPOS>ATOM
      1 C         143.5142  140.8021  165.2193 C.ar    1  UNL1        0.1482
      2 C         143.7423  142.2618  165.4785 C.ar    1  UNL1        0.0581
      3 C         143.8979  143.2123  164.3286 C.ar    1  UNL1        0.1020
      4 N         143.8253  142.7031  162.9195 N.ar    1  UNL1       -0.2436
      5 C         143.5971  141.2435  162.6603 C.ar    1  UNL1        0.0842
      6 C         143.5245  140.7343  161.2513 C.ar    1  UNL1        0.0193
      7 C         143.2964  139.2746  160.9921 C.ar    1  UNL1        0.0045
      8 C         143.1408  138.3240  162.1420 C.ar    1  UNL1        0.0003
      9 C         143.2134  138.8332  163.5511 C.ar    1  UNL1        0.0045
     10 C         143.4416  140.2929  163.8102 C.ar    1  UNL1        0.0522
     11 C         143.2238  138.7654  159.5830 C.ar    1  UNL1        0.0397
     12 C         143.5638  139.5429  158.3460 C.ar    1  UNL1        0.1216
     13 N         143.3486  138.6473  157.1620 N.ar    1  UNL1       -0.1677
     14 N         142.8756  137.3165  157.6673 N.ar    1  UNL1       -0.2513
     15 C         142.7985  137.3895  159.1635 C.ar    1  UNL1        0.0965
     16 C         142.5389  136.1224  156.8243 C.3     1  UNL1        0.1080
     17 C         141.4385  136.2078  155.8085 C.3     1  UNL1        0.0415
     18 C         141.1017  135.0137  154.9654 C.3     1  UNL1        0.0706
     19 N         141.8654  133.7343  155.1382 N.3     1  UNL1       -0.2974
     20 C         142.9658  133.6489  156.1539 C.3     1  UNL1        0.0706
     21 C         143.3026  134.8430  156.9970 C.3     1  UNL1        0.0415
     22 H         142.2824  133.5158  154.2333 H       1  UNL1        0.1232
     23 O         143.3586  139.8515  166.3692 O.3     1  UNL1       -0.4534
     24 C         138.5767  140.2566  169.9705 C.3     1  UNL1        0.0310
     25 C         139.7722  140.1553  169.0702 C.ar    1  UNL1       -0.0217
     26 C         141.1522  140.1196  169.6570 C.ar    1  UNL1       -0.0011
     27 C         142.3476  140.0184  168.7567 C.ar    1  UNL1        0.0372
     28 C         142.1631  139.9528  167.2695 C.ar    1  UNL1        0.1453
     29 C         140.7831  139.9885  166.6826 C.ar    1  UNL1        0.0372
     30 C         139.5877  140.0897  167.5830 C.ar    1  UNL1       -0.0011
@<TRIPOS>BOND
     1    24    25    1
     2    25    26   ar
     3    26    27   ar
     4    27    28   ar
     5    28    23    1
     6    23     1    1
     7     1     2   ar
     8     2     3   ar
     9     3     4   ar
    10     4     5   ar
    11     5     6   ar
    12     6     7   ar
    13     7    11    1
    14    11    12   ar
    15    12    13   ar
    16    13    14   ar
    17    14    16    1
    18    16    17    1
    19    17    18    1
    20    18    19    1
    21    19    20    1
    22    20    21    1
    23    14    15   ar
    24     7     8   ar
    25     8     9   ar
    26     9    10   ar
    27    28    29   ar
    28    29    30   ar
    29    30    25   ar
    30    10     1   ar
    31    10     5   ar
    32    15    11   ar
    33    21    16    1
    34    19    22    1
@<TRIPOS>MOLECULE
*****
 30 34 0 0 0
SMALL
GASTEIGER

@<TRIPOS>ATOM
      1 C         142.6613  142.1414  163.8283 C.ar    1  UNL1        0.1482
      2 C         143.9177  142.5362  164.5464 C.ar    1  UNL1        0.0581
      3 C         145.2523  142.1032  164.0160 C.ar    1  UNL1        0.1020
      4 N         145.3305  141.2754  162.7675 N.ar    1  UNL1       -0.2436
      5 C         144.0741  140.8806  162.0494 C.ar    1  UNL1        0.0842
      6 C         144.1523  140.0528  160.8010 C.ar    1  UNL1        0.0193
      7 C         142.8960  139.6580  160.0829 C.ar    1  UNL1        0.0045
      8 C         141.5613  140.0910  160.6133 C.ar    1  UNL1        0.0003
      9 C         141.4831  140.9188  161.8618 C.ar    1  UNL1        0.0045
     10 C         142.7395  141.3136  162.5799 C.ar    1  UNL1        0.0522
     11 C         142.9742  138.8303  158.8345 C.ar    1  UNL1        0.0397
     12 C         143.4128  139.3120  157.4832 C.ar    1  UNL1        0.1216
     13 N         143.3372  138.1548  156.5317 N.ar    1  UNL1       -0.1677
     14 N         142.8520  136.9581  157.2948 N.ar    1  UNL1       -0.2513
     15 C         142.6277  137.3755  158.7180 C.ar    1  UNL1        0.0965
     16 C         142.6301  135.5850  156.7333 C.3     1  UNL1        0.1080
     17 C         143.3619  134.4106  157.3124 C.3     1  UNL1        0.0415
     18 C         143.1400  133.0375  156.7510 C.3     1  UNL1        0.0706
     19 N         142.1864  132.8387  155.6103 N.3     1  UNL1       -0.2974
     20 C         141.4546  134.0131  155.0311 C.3     1  UNL1        0.0706
     21 C         141.6765  135.3862  155.5926 C.3     1  UNL1        0.0415
     22 H         141.4776  132.1789  155.9307 H       1  UNL1        0.1232
     23 O         141.3266  142.5744  164.3587 O.3     1  UNL1       -0.4534
     24 C         137.7165  138.5853  167.0148 C.3     1  UNL1        0.0310
     25 C         138.6190  139.5826  166.3508 C.ar    1  UNL1       -0.0217
     26 C         138.1459  140.3339  165.1418 C.ar    1  UNL1       -0.0011
     27 C         139.0485  141.3311  164.4778 C.ar    1  UNL1        0.0372
     28 C         140.4241  141.5771  165.0227 C.ar    1  UNL1        0.1453
     29 C         140.8973  140.8258  166.2318 C.ar    1  UNL1        0.0372
     30 C         139.9948  139.8285  166.8958 C.ar    1  UNL1       -0.0011
@<TRIPOS>BOND
     1    24    25    1
     2    25    26   ar
     3    26    27   ar
     4    27    28   ar
     5    28    23    1
     6    23     1    1
     7     1     2   ar
     8     2     3   ar
     9     3     4   ar
    10     4     5   ar
    11     5     6   ar
    12     6     7   ar
    13     7    11    1
    14    11    12   ar
    15    12    13   ar
    16    13    14   ar
    17    14    16    1
    18    16    17    1
    19    17    18    1
    20    18    19    1
    21    19    20    1
    22    20    21    1
    23    14    15   ar
    24     7     8   ar
    25     8     9   ar
    26     9    10   ar
    27    28    29   ar
    28    29    30   ar
    29    30    25   ar
    30    10     1   ar
    31    10     5   ar
    32    15    11   ar
    33    21    16    1
    34    19    22    1
@<TRIPOS>MOLECULE
*****
 30 34 0 0 0
SMALL
GASTEIGER

@<TRIPOS>ATOM
      1 C         138.9685  139.6051  164.6011 C.ar    1  UNL1        0.1482
      2 C         138.8953  138.1456  164.2630 C.ar    1  UNL1        0.0581
      3 C         139.2094  137.6814  162.8717 C.ar    1  UNL1        0.1020
      4 N         139.5969  138.6767  161.8185 N.ar    1  UNL1       -0.2436
      5 C         139.6701  140.1363  162.1566 C.ar    1  UNL1        0.0842
      6 C         140.0575  141.1316  161.1034 C.ar    1  UNL1        0.0193
      7 C         140.1308  142.5911  161.4415 C.ar    1  UNL1        0.0045
      8 C         139.8166  143.0554  162.8329 C.ar    1  UNL1        0.0003
      9 C         139.4292  142.0601  163.8861 C.ar    1  UNL1        0.0045
     10 C         139.3559  140.6005  163.5479 C.ar    1  UNL1        0.0522
     11 C         140.5182  143.5865  160.3883 C.ar    1  UNL1        0.0397
     12 C         141.7192  144.4846  160.4232 C.ar    1  UNL1        0.1216
     13 N         141.7159  145.3116  159.1717 N.ar    1  UNL1       -0.1677
     14 N         140.5129  144.9247  158.3635 N.ar    1  UNL1       -0.2513
     15 C         139.7727  143.8585  159.1155 C.ar    1  UNL1        0.0965
     16 C         140.1193  145.5025  157.0365 C.3     1  UNL1        0.1080
     17 C         139.4705  146.8532  156.9694 C.3     1  UNL1        0.0415
     18 C         139.0768  147.4311  155.6424 C.3     1  UNL1        0.0706
     19 N         139.3320  146.6583  154.3824 N.3     1  UNL1       -0.2974
     20 C         139.9808  145.3075  154.4495 C.3     1  UNL1        0.0706
     21 C         140.3745  144.7296  155.7765 C.3     1  UNL1        0.0415
     22 H         139.9270  147.2419  153.7944 H       1  UNL1        0.1232
     23 O         138.6543  140.0694  165.9925 O.3     1  UNL1       -0.4534
     24 C         142.8298  139.7178  170.2869 C.3     1  UNL1        0.0310
     25 C         141.7859  139.8057  169.2133 C.ar    1  UNL1       -0.0217
     26 C         140.3487  140.0274  169.5810 C.ar    1  UNL1       -0.0011
     27 C         139.3048  140.1153  168.5074 C.ar    1  UNL1        0.0372
     28 C         139.6982  139.9815  167.0661 C.ar    1  UNL1        0.1453
     29 C         141.1355  139.7598  166.6984 C.ar    1  UNL1        0.0372
     30 C         142.1793  139.6719  167.7720 C.ar    1  UNL1       -0.0011
@<TRIPOS>BOND
     1    24    25    1
     2    25    26   ar
     3    26    27   ar
     4    27    28   ar
     5    28    23    1
     6    23     1    1
     7     1     2   ar
     8     2     3   ar
     9     3     4   ar
    10     4     5   ar
    11     5     6   ar
    12     6     7   ar
    13     7    11    1
    14    11    12   ar
    15    12    13   ar
    16    13    14   ar
    17    14    16    1
    18    16    17    1
    19    17    18    1
    20    18    19    1
    21    19    20    1
    22    20    21    1
    23    14    15   ar
    24     7     8   ar
    25     8     9   ar
    26     9    10   ar
    27    28    29   ar
    28    29    30   ar
    29    30    25   ar
    30    10     1   ar
    31    10     5   ar
    32    15    11   ar
    33    21    16    1
    34    19    22    1
@<TRIPOS>MOLECULE
*****
 30 34 0 0 0
SMALL
GASTEIGER

@<TRIPOS>ATOM
      1 C         139.3117  138.6135  164.6118 C.ar    1  UNL1        0.1482
      2 C         140.3182  137.5055  164.7079 C.ar    1  UNL1        0.0581
      3 C         141.0475  137.0462  163.4803 C.ar    1  UNL1        0.1020
      4 N         140.7703  137.6949  162.1565 N.ar    1  UNL1       -0.2436
      5 C         139.7637  138.8028  162.0604 C.ar    1  UNL1        0.0842
      6 C         139.4865  139.4515  160.7366 C.ar    1  UNL1        0.0193
      7 C         138.4800  140.5595  160.6405 C.ar    1  UNL1        0.0045
      8 C         137.7506  141.0188  161.8681 C.ar    1  UNL1        0.0003
      9 C         138.0279  140.3702  163.1919 C.ar    1  UNL1        0.0045
     10 C         139.0344  139.2621  163.2880 C.ar    1  UNL1        0.0522
     11 C         138.2028  141.2081  159.3167 C.ar    1  UNL1        0.0397
     12 C         138.8056  142.4883  158.8187 C.ar    1  UNL1        0.1216
     13 N         138.2494  142.7618  157.4527 N.ar    1  UNL1       -0.1677
     14 N         137.3029  141.6508  157.1065 N.ar    1  UNL1       -0.2513
     15 C         137.2741  140.6906  158.2585 C.ar    1  UNL1        0.0965
     16 C         136.5224  141.5226  155.8321 C.3     1  UNL1        0.1080
     17 C         137.0405  142.1451  154.5694 C.3     1  UNL1        0.0415
     18 C         136.2600  142.0169  153.2949 C.3     1  UNL1        0.0706
     19 N         134.9614  141.2663  153.2831 N.3     1  UNL1       -0.2974
     20 C         134.4433  140.6438  154.5457 C.3     1  UNL1        0.0706
     21 C         135.2238  140.7720  155.8202 C.3     1  UNL1        0.0415
     22 H         135.0632  140.5125  152.6034 H       1  UNL1        0.1232
     23 O         138.5823  139.0728  165.8395 O.3     1  UNL1       -0.4534
     24 C         141.0991  143.1181  169.4866 C.3     1  UNL1        0.0310
     25 C         140.4699  142.1068  168.5748 C.ar    1  UNL1       -0.0217
     26 C         139.8473  140.8672  169.1455 C.ar    1  UNL1       -0.0011
     27 C         139.2181  139.8559  168.2337 C.ar    1  UNL1        0.0372
     28 C         139.2115  140.0841  166.7512 C.ar    1  UNL1        0.1453
     29 C         139.8341  141.3238  166.1805 C.ar    1  UNL1        0.0372
     30 C         140.4633  142.3351  167.0922 C.ar    1  UNL1       -0.0011
@<TRIPOS>BOND
     1    24    25    1
     2    25    26   ar
     3    26    27   ar
     4    27    28   ar
     5    28    23    1
     6    23     1    1
     7     1     2   ar
     8     2     3   ar
     9     3     4   ar
    10     4     5   ar
    11     5     6   ar
    12     6     7   ar
    13     7    11    1
    14    11    12   ar
    15    12    13   ar
    16    13    14   ar
    17    14    16    1
    18    16    17    1
    19    17    18    1
    20    18    19    1
    21    19    20    1
    22    20    21    1
    23    14    15   ar
    24     7     8   ar
    25     8     9   ar
    26     9    10   ar
    27    28    29   ar
    28    29    30   ar
    29    30    25   ar
    30    10     1   ar
    31    10     5   ar
    32    15    11   ar
    33    21    16    1
    34    19    22    1
