@<TRIPOS>MOLECULE
*****
 22 23 0 0 0
SMALL
GASTEIGER

@<TRIPOS>ATOM
      1 C         140.0009  141.2481  167.2119 C.ar    1  UNL1        0.0281
      2 C         139.4090  139.8905  167.4496 C.ar    1  UNL1        0.0040
      3 C         138.5195  139.2683  166.4143 C.ar    1  UNL1        0.0713
      4 C         138.2220  140.0037  165.1413 C.ar    1  UNL1        0.0070
      5 C         138.8139  141.3613  164.9036 C.ar    1  UNL1        0.0372
      6 C         139.7033  141.9835  165.9389 C.ar    1  UNL1        0.1425
      7 C         137.9276  137.9106  166.6521 C.3     1  UNL1        0.4186
      8 F         137.3358  136.5531  166.8899 F       1  UNL1       -0.1659
      9 F         137.1116  138.4644  167.7823 F       1  UNL1       -0.1659
     10 F         138.7437  137.3569  165.5219 F       1  UNL1       -0.1659
     11 C         140.8903  141.8702  168.2472 C.3     1  UNL1        0.0987
     12 C         140.0880  143.2141  170.3208 C.3     1  UNL1        0.0861
     13 N         140.5056  143.1743  168.8807 N.3     1  UNL1       -0.2925
     14 H         141.3104  143.7944  168.7902 H       1  UNL1        0.1236
     15 O         140.2952  143.3412  165.7011 O.3     1  UNL1       -0.4538
     16 C         140.3716  143.8926  164.3083 C.ar    1  UNL1        0.1453
     17 C         139.3114  144.8316  163.8141 C.ar    1  UNL1        0.0372
     18 C         139.3878  145.3830  162.4213 C.ar    1  UNL1       -0.0011
     19 C         140.5245  144.9954  161.5225 C.ar    1  UNL1       -0.0217
     20 C         140.6009  145.5468  160.1297 C.3     1  UNL1        0.0310
     21 C         141.5847  144.0564  162.0166 C.ar    1  UNL1       -0.0011
     22 C         141.5083  143.5050  163.4095 C.ar    1  UNL1        0.0372
@<TRIPOS>BOND
     1    12    13    1
     2    13    11    1
     3    11     1    1
     4     1     2   ar
     5     2     3   ar
     6     3     7    1
     7     7     8    1
     8     7     9    1
     9     7    10    1
    10     3     4   ar
    11     4     5   ar
    12     5     6   ar
    13     6    15    1
    14    15    16    1
    15    16    17   ar
    16    17    18   ar
    17    18    19   ar
    18    19    20    1
    19    19    21   ar
    20    21    22   ar
    21     6     1   ar
    22    22    16   ar
    23    13    14    1
@<TRIPOS>MOLECULE
*****
 22 23 0 0 0
SMALL
GASTEIGER

@<TRIPOS>ATOM
      1 C         143.0845  140.9483  166.2573 C.ar    1  UNL1        0.0281
      2 C         143.1368  142.0311  167.2940 C.ar    1  UNL1        0.0040
      3 C         142.9293  141.6946  168.7410 C.ar    1  UNL1        0.0713
      4 C         142.6696  140.2754  169.1512 C.ar    1  UNL1        0.0070
      5 C         142.6173  139.1927  168.1145 C.ar    1  UNL1        0.0372
      6 C         142.8248  139.5291  166.6675 C.ar    1  UNL1        0.1425
      7 C         142.9815  142.7775  169.7778 C.3     1  UNL1        0.4186
      8 F         143.0337  143.8603  170.8145 F       1  UNL1       -0.1659
      9 F         141.5462  143.1129  169.4996 F       1  UNL1       -0.1659
     10 F         144.4168  142.4420  170.0559 F       1  UNL1       -0.1659
     11 C         143.2920  141.2848  164.8103 C.3     1  UNL1        0.0987
     12 C         145.6838  141.4127  163.8040 C.3     1  UNL1        0.0861
     13 N         144.4155  140.6494  164.0462 N.3     1  UNL1       -0.2925
     14 H         144.6737  139.8023  164.5523 H       1  UNL1        0.1236
     15 O         142.7726  138.4463  165.6307 O.3     1  UNL1       -0.4538
     16 C         141.5813  138.3304  164.7267 C.ar    1  UNL1        0.1453
     17 C         141.7581  137.8788  163.3072 C.ar    1  UNL1        0.0372
     18 C         140.5669  137.7629  162.4031 C.ar    1  UNL1       -0.0011
     19 C         139.1988  138.0986  162.9184 C.ar    1  UNL1       -0.0217
     20 C         138.0075  137.9827  162.0143 C.3     1  UNL1        0.0310
     21 C         139.0219  138.5502  164.3378 C.ar    1  UNL1       -0.0011
     22 C         140.2132  138.6661  165.2420 C.ar    1  UNL1        0.0372
@<TRIPOS>BOND
     1    12    13    1
     2    13    11    1
     3    11     1    1
     4     1     2   ar
     5     2     3   ar
     6     3     7    1
     7     7     8    1
     8     7     9    1
     9     7    10    1
    10     3     4   ar
    11     4     5   ar
    12     5     6   ar
    13     6    15    1
    14    15    16    1
    15    16    17   ar
    16    17    18   ar
    17    18    19   ar
    18    19    20    1
    19    19    21   ar
    20    21    22   ar
    21     6     1   ar
    22    22    16   ar
    23    13    14    1
@<TRIPOS>MOLECULE
*****
 22 23 0 0 0
SMALL
GASTEIGER

@<TRIPOS>ATOM
      1 C         140.0541  140.2614  169.7234 C.ar    1  UNL1        0.0281
      2 C         141.1763  141.0695  170.3043 C.ar    1  UNL1        0.0040
      3 C         142.1686  141.7353  169.3977 C.ar    1  UNL1        0.0713
      4 C         142.0387  141.5931  167.9101 C.ar    1  UNL1        0.0070
      5 C         140.9164  140.7850  167.3292 C.ar    1  UNL1        0.0372
      6 C         139.9241  140.1192  168.2358 C.ar    1  UNL1        0.1425
      7 C         143.2909  142.5435  169.9787 C.3     1  UNL1        0.4186
      8 F         144.4132  143.3515  170.5596 F       1  UNL1       -0.1659
      9 F         144.0032  142.5029  168.6592 F       1  UNL1       -0.1659
     10 F         142.5787  142.5841  171.2981 F       1  UNL1       -0.1659
     11 C         139.0618  139.5955  170.6300 C.3     1  UNL1        0.0987
     12 C         136.6006  138.8887  171.0690 C.3     1  UNL1        0.0861
     13 N         137.5920  139.8061  170.4168 N.3     1  UNL1       -0.2925
     14 H         137.3793  140.7490  170.7426 H       1  UNL1        0.1236
     15 O         138.8018  139.3111  167.6548 O.3     1  UNL1       -0.4538
     16 C         138.6850  139.1501  166.1681 C.ar    1  UNL1        0.1453
     17 C         138.1723  140.2829  165.3290 C.ar    1  UNL1        0.0372
     18 C         138.0555  140.1219  163.8423 C.ar    1  UNL1       -0.0011
     19 C         138.4513  138.8281  163.1946 C.ar    1  UNL1       -0.0217
     20 C         138.3344  138.6671  161.7078 C.3     1  UNL1        0.0310
     21 C         138.9639  137.6954  164.0336 C.ar    1  UNL1       -0.0011
     22 C         139.0808  137.8563  165.5204 C.ar    1  UNL1        0.0372
@<TRIPOS>BOND
     1    12    13    1
     2    13    11    1
     3    11     1    1
     4     1     2   ar
     5     2     3   ar
     6     3     7    1
     7     7     8    1
     8     7     9    1
     9     7    10    1
    10     3     4   ar
    11     4     5   ar
    12     5     6   ar
    13     6    15    1
    14    15    16    1
    15    16    17   ar
    16    17    18   ar
    17    18    19   ar
    18    19    20    1
    19    19    21   ar
    20    21    22   ar
    21     6     1   ar
    22    22    16   ar
    23    13    14    1
@<TRIPOS>MOLECULE
*****
 22 23 0 0 0
SMALL
GASTEIGER

@<TRIPOS>ATOM
      1 C         140.0620  141.0393  167.3208 C.ar    1  UNL1        0.0281
      2 C         139.4001  139.7173  167.5738 C.ar    1  UNL1        0.0040
      3 C         138.4109  139.1727  166.5865 C.ar    1  UNL1        0.0713
      4 C         138.0835  139.9500  165.3462 C.ar    1  UNL1        0.0070
      5 C         138.7455  141.2721  165.0931 C.ar    1  UNL1        0.0372
      6 C         139.7347  141.8167  166.0804 C.ar    1  UNL1        0.1425
      7 C         137.7489  137.8506  166.8396 C.3     1  UNL1        0.4186
      8 F         137.0870  136.5286  167.0927 F       1  UNL1       -0.1659
      9 F         137.0349  138.4346  168.0224 F       1  UNL1       -0.1659
     10 F         138.4630  137.2666  165.6568 F       1  UNL1       -0.1659
     11 C         141.0513  141.5840  168.3081 C.3     1  UNL1        0.0987
     12 C         140.2369  143.3669  170.0132 C.3     1  UNL1        0.0861
     13 N         140.9616  143.0152  168.7479 N.3     1  UNL1       -0.2925
     14 H         141.9188  143.3513  168.8536 H       1  UNL1        0.1236
     15 O         140.3966  143.1388  165.8273 O.3     1  UNL1       -0.4538
     16 C         141.5178  143.2386  164.8359 C.ar    1  UNL1        0.1453
     17 C         141.7444  144.5180  164.0862 C.ar    1  UNL1        0.0372
     18 C         142.8656  144.6178  163.0948 C.ar    1  UNL1       -0.0011
     19 C         143.7602  143.4383  162.8530 C.ar    1  UNL1       -0.0217
     20 C         144.8814  143.5381  161.8616 C.3     1  UNL1        0.0310
     21 C         143.5336  142.1590  163.6026 C.ar    1  UNL1       -0.0011
     22 C         142.4124  142.0591  164.5941 C.ar    1  UNL1        0.0372
@<TRIPOS>BOND
     1    12    13    1
     2    13    11    1
     3    11     1    1
     4     1     2   ar
     5     2     3   ar
     6     3     7    1
     7     7     8    1
     8     7     9    1
     9     7    10    1
    10     3     4   ar
    11     4     5   ar
    12     5     6   ar
    13     6    15    1
    14    15    16    1
    15    16    17   ar
    16    17    18   ar
    17    18    19   ar
    18    19    20    1
    19    19    21   ar
    20    21    22   ar
    21     6     1   ar
    22    22    16   ar
    23    13    14    1
@<TRIPOS>MOLECULE
*****
 22 23 0 0 0
SMALL
GASTEIGER

@<TRIPOS>ATOM
      1 C         139.6006  138.5618  163.4805 C.ar    1  UNL1        0.0281
      2 C         138.9240  137.7868  164.5721 C.ar    1  UNL1        0.0040
      3 C         138.2960  138.5098  165.7266 C.ar    1  UNL1        0.0713
      4 C         138.3447  140.0076  165.7896 C.ar    1  UNL1        0.0070
      5 C         139.0213  140.7825  164.6980 C.ar    1  UNL1        0.0372
      6 C         139.6493  140.0596  163.5434 C.ar    1  UNL1        0.1425
      7 C         137.6194  137.7347  166.8183 C.3     1  UNL1        0.4186
      8 F         136.9428  136.9598  167.9099 F       1  UNL1       -0.1659
      9 F         137.3564  139.0110  167.5612 F       1  UNL1       -0.1659
     10 F         137.8824  136.4585  166.0753 F       1  UNL1       -0.1659
     11 C         140.2286  137.8388  162.3259 C.3     1  UNL1        0.0987
     12 C         142.8136  138.0912  162.3896 C.3     1  UNL1        0.0861
     13 N         141.5902  137.2275  162.4749 N.3     1  UNL1       -0.2925
     14 H         141.6117  136.7759  163.3892 H       1  UNL1        0.1236
     15 O         140.3259  140.8346  162.4518 O.3     1  UNL1       -0.4538
     16 C         141.2141  141.9937  162.7947 C.ar    1  UNL1        0.1453
     17 C         142.5901  141.7488  163.3393 C.ar    1  UNL1        0.0372
     18 C         143.4783  142.9079  163.6822 C.ar    1  UNL1       -0.0011
     19 C         142.9906  144.3119  163.4804 C.ar    1  UNL1       -0.0217
     20 C         143.8788  145.4710  163.8232 C.3     1  UNL1        0.0310
     21 C         141.6146  144.5569  162.9357 C.ar    1  UNL1       -0.0011
     22 C         140.7264  143.3978  162.5929 C.ar    1  UNL1        0.0372
@<TRIPOS>BOND
     1    12    13    1
     2    13    11    1
     3    11     1    1
     4     1     2   ar
     5     2     3   ar
     6     3     7    1
     7     7     8    1
     8     7     9    1
     9     7    10    1
    10     3     4   ar
    11     4     5   ar
    12     5     6   ar
    13     6    15    1
    14    15    16    1
    15    16    17   ar
    16    17    18   ar
    17    18    19   ar
    18    19    20    1
    19    19    21   ar
    20    21    22   ar
    21     6     1   ar
    22    22    16   ar
    23    13    14    1
@<TRIPOS>MOLECULE
*****
 22 23 0 0 0
SMALL
GASTEIGER

@<TRIPOS>ATOM
      1 C         139.6745  140.2138  166.0224 C.ar    1  UNL1        0.0281
      2 C         139.3664  139.9331  167.4633 C.ar    1  UNL1        0.0040
      3 C         140.3924  140.2198  168.5193 C.ar    1  UNL1        0.0713
      4 C         141.7265  140.7873  168.1344 C.ar    1  UNL1        0.0070
      5 C         142.0345  141.0680  166.6935 C.ar    1  UNL1        0.0372
      6 C         141.0085  140.7813  165.6375 C.ar    1  UNL1        0.1425
      7 C         140.0843  139.9391  169.9603 C.3     1  UNL1        0.4186
      8 F         139.7761  139.6584  171.4012 F       1  UNL1       -0.1659
      9 F         138.8557  140.7943  169.8641 F       1  UNL1       -0.1659
     10 F         141.3128  139.0839  170.0564 F       1  UNL1       -0.1659
     11 C         138.6485  139.9271  164.9664 C.3     1  UNL1        0.0987
     12 C         137.4113  141.3721  163.1969 C.3     1  UNL1        0.0861
     13 N         137.6154  140.9594  164.6245 N.3     1  UNL1       -0.2925
     14 H         136.7203  140.6022  164.9586 H       1  UNL1        0.1236
     15 O         141.3167  141.0621  164.1965 O.3     1  UNL1       -0.4538
     16 C         140.9195  142.3735  163.5864 C.ar    1  UNL1        0.1453
     17 C         140.4343  143.4914  164.4611 C.ar    1  UNL1        0.0372
     18 C         140.0372  144.8028  163.8509 C.ar    1  UNL1       -0.0011
     19 C         140.1250  144.9965  162.3661 C.ar    1  UNL1       -0.0217
     20 C         139.7279  146.3079  161.7559 C.3     1  UNL1        0.0310
     21 C         140.6101  143.8786  161.4914 C.ar    1  UNL1       -0.0011
     22 C         141.0073  142.5671  162.1015 C.ar    1  UNL1        0.0372
@<TRIPOS>BOND
     1    12    13    1
     2    13    11    1
     3    11     1    1
     4     1     2   ar
     5     2     3   ar
     6     3     7    1
     7     7     8    1
     8     7     9    1
     9     7    10    1
    10     3     4   ar
    11     4     5   ar
    12     5     6   ar
    13     6    15    1
    14    15    16    1
    15    16    17   ar
    16    17    18   ar
    17    18    19   ar
    18    19    20    1
    19    19    21   ar
    20    21    22   ar
    21     6     1   ar
    22    22    16   ar
    23    13    14    1
@<TRIPOS>MOLECULE
*****
 22 23 0 0 0
SMALL
GASTEIGER

@<TRIPOS>ATOM
      1 C         141.5964  139.5812  166.5670 C.ar    1  UNL1        0.0281
      2 C         142.5364  139.4379  167.7271 C.ar    1  UNL1        0.0040
      3 C         142.0416  139.6611  169.1254 C.ar    1  UNL1        0.0713
      4 C         140.6067  140.0277  169.3636 C.ar    1  UNL1        0.0070
      5 C         139.6668  140.1711  168.2036 C.ar    1  UNL1        0.0372
      6 C         140.1616  139.9478  166.8052 C.ar    1  UNL1        0.1425
      7 C         142.9816  139.5177  170.2855 C.3     1  UNL1        0.4186
      8 F         143.9217  139.3743  171.4455 F       1  UNL1       -0.1659
      9 F         143.2498  140.9931  170.2505 F       1  UNL1       -0.1659
     10 F         142.7135  138.0423  170.3205 F       1  UNL1       -0.1659
     11 C         142.0913  139.3580  165.1687 C.3     1  UNL1        0.0987
     12 C         141.0712  137.2014  164.1400 C.3     1  UNL1        0.0861
     13 N         142.2605  137.9620  164.6469 N.3     1  UNL1       -0.2925
     14 H         142.9268  138.0144  163.8763 H       1  UNL1        0.1236
     15 O         139.2215  140.0912  165.6451 O.3     1  UNL1       -0.4538
     16 C         139.1219  141.3993  164.9178 C.ar    1  UNL1        0.1453
     17 C         140.1246  142.4830  165.1827 C.ar    1  UNL1        0.0372
     18 C         140.0250  143.7911  164.4554 C.ar    1  UNL1       -0.0011
     19 C         138.9227  144.0154  163.4631 C.ar    1  UNL1       -0.0217
     20 C         138.8230  145.3235  162.7358 C.3     1  UNL1        0.0310
     21 C         137.9200  142.9318  163.1982 C.ar    1  UNL1       -0.0011
     22 C         138.0196  141.6236  163.9255 C.ar    1  UNL1        0.0372
@<TRIPOS>BOND
     1    12    13    1
     2    13    11    1
     3    11     1    1
     4     1     2   ar
     5     2     3   ar
     6     3     7    1
     7     7     8    1
     8     7     9    1
     9     7    10    1
    10     3     4   ar
    11     4     5   ar
    12     5     6   ar
    13     6    15    1
    14    15    16    1
    15    16    17   ar
    16    17    18   ar
    17    18    19   ar
    18    19    20    1
    19    19    21   ar
    20    21    22   ar
    21     6     1   ar
    22    22    16   ar
    23    13    14    1
@<TRIPOS>MOLECULE
*****
 22 23 0 0 0
SMALL
GASTEIGER

@<TRIPOS>ATOM
      1 C         141.0403  141.5162  167.1220 C.ar    1  UNL1        0.0281
      2 C         141.6057  142.4888  168.1141 C.ar    1  UNL1        0.0040
      3 C         142.5242  142.0065  169.1975 C.ar    1  UNL1        0.0713
      4 C         142.8775  140.5516  169.2886 C.ar    1  UNL1        0.0070
      5 C         142.3122  139.5790  168.2965 C.ar    1  UNL1        0.0372
      6 C         141.3936  140.0613  167.2132 C.ar    1  UNL1        0.1425
      7 C         143.0895  142.9792  170.1897 C.3     1  UNL1        0.4186
      8 F         143.6548  143.9518  171.1818 F       1  UNL1       -0.1659
      9 F         141.7436  143.6282  170.3202 F       1  UNL1       -0.1659
     10 F         144.4355  142.3301  170.0591 F       1  UNL1       -0.1659
     11 C         140.1218  141.9985  166.0387 C.3     1  UNL1        0.0987
     12 C         140.0009  141.7756  163.4530 C.3     1  UNL1        0.0861
     13 N         140.6691  142.3216  164.6800 N.3     1  UNL1       -0.2925
     14 H         140.6598  143.3378  164.5928 H       1  UNL1        0.1236
     15 O         140.8283  139.0886  166.2210 O.3     1  UNL1       -0.4538
     16 C         141.5805  138.7807  164.9603 C.ar    1  UNL1        0.1453
     17 C         140.9540  137.9186  163.9046 C.ar    1  UNL1        0.0372
     18 C         141.7063  137.6107  162.6440 C.ar    1  UNL1       -0.0011
     19 C         143.0850  138.1649  162.4389 C.ar    1  UNL1       -0.0217
     20 C         143.8372  137.8570  161.1782 C.3     1  UNL1        0.0310
     21 C         143.7114  139.0270  163.4945 C.ar    1  UNL1       -0.0011
     22 C         142.9592  139.3349  164.7552 C.ar    1  UNL1        0.0372
@<TRIPOS>BOND
     1    12    13    1
     2    13    11    1
     3    11     1    1
     4     1     2   ar
     5     2     3   ar
     6     3     7    1
     7     7     8    1
     8     7     9    1
     9     7    10    1
    10     3     4   ar
    11     4     5   ar
    12     5     6   ar
    13     6    15    1
    14    15    16    1
    15    16    17   ar
    16    17    18   ar
    17    18    19   ar
    18    19    20    1
    19    19    21   ar
    20    21    22   ar
    21     6     1   ar
    22    22    16   ar
    23    13    14    1
@<TRIPOS>MOLECULE
*****
 22 23 0 0 0
SMALL
GASTEIGER

@<TRIPOS>ATOM
      1 C         140.8462  140.9874  166.0439 C.ar    1  UNL1        0.0281
      2 C         140.2354  139.6535  166.3562 C.ar    1  UNL1        0.0040
      3 C         138.8363  139.3465  165.9109 C.ar    1  UNL1        0.0713
      4 C         138.0480  140.3734  165.1534 C.ar    1  UNL1        0.0070
      5 C         138.6587  141.7074  164.8412 C.ar    1  UNL1        0.0372
      6 C         140.0578  142.0144  165.2864 C.ar    1  UNL1        0.1425
      7 C         138.2256  138.0124  166.2232 C.3     1  UNL1        0.4186
      8 F         137.6149  136.6785  166.5355 F       1  UNL1       -0.1659
      9 F         137.2363  138.6784  167.1329 F       1  UNL1       -0.1659
     10 F         139.2149  137.3465  165.3134 F       1  UNL1       -0.1659
     11 C         142.2453  141.2945  166.4892 C.3     1  UNL1        0.0987
     12 C         144.0321  142.9847  165.6524 C.3     1  UNL1        0.0861
     13 N         143.2814  141.6973  165.4822 N.3     1  UNL1       -0.2925
     14 H         143.9769  140.9515  165.4610 H       1  UNL1        0.1236
     15 O         140.6685  143.3484  164.9742 O.3     1  UNL1       -0.4538
     16 C         140.6420  143.8752  163.5700 C.ar    1  UNL1        0.1453
     17 C         139.8925  145.1360  163.2559 C.ar    1  UNL1        0.0372
     18 C         139.8660  145.6628  161.8517 C.ar    1  UNL1       -0.0011
     19 C         140.5890  144.9288  160.7616 C.ar    1  UNL1       -0.0217
     20 C         140.5625  145.4555  159.3574 C.3     1  UNL1        0.0310
     21 C         141.3385  143.6680  161.0756 C.ar    1  UNL1       -0.0011
     22 C         141.3650  143.1412  162.4798 C.ar    1  UNL1        0.0372
@<TRIPOS>BOND
     1    12    13    1
     2    13    11    1
     3    11     1    1
     4     1     2   ar
     5     2     3   ar
     6     3     7    1
     7     7     8    1
     8     7     9    1
     9     7    10    1
    10     3     4   ar
    11     4     5   ar
    12     5     6   ar
    13     6    15    1
    14    15    16    1
    15    16    17   ar
    16    17    18   ar
    17    18    19   ar
    18    19    20    1
    19    19    21   ar
    20    21    22   ar
    21     6     1   ar
    22    22    16   ar
    23    13    14    1
