@<TRIPOS>MOLECULE
*****
 33 37 0 0 0
SMALL
GASTEIGER

@<TRIPOS>ATOM
      1 C         139.9736  144.6428  160.7991 C.3     1  UNL1        0.0285
      2 C         139.8668  143.4587  161.7137 C.3     1  UNL1        0.1321
      3 C         140.3142  143.5707  163.1410 C.3     1  UNL1        0.2279
      4 O         140.2074  142.3865  164.0556 O.3     1  UNL1       -0.4707
      5 C         139.6532  141.0904  163.5429 C.ar    1  UNL1        0.1697
      6 C         139.5464  139.9063  164.4574 C.ar    1  UNL1        0.1115
      7 C         138.9922  138.6102  163.9447 C.ar    1  UNL1        0.1564
      8 F         138.8854  137.4261  164.8593 F       1  UNL1       -0.2028
      9 C         138.5447  138.4982  162.5174 C.ar    1  UNL1        0.0326
     10 C         138.6515  139.6823  161.6028 C.ar    1  UNL1        0.0214
     11 C         138.2041  139.5703  160.1755 C.ar    1  UNL1        0.0075
     12 C         138.3109  140.7544  159.2609 C.ar    1  UNL1        0.0702
     13 C         138.8651  142.0505  159.7736 C.ar    1  UNL1        0.2620
     14 O         138.9719  143.2347  158.8590 O.2     1  UNL1       -0.2669
     15 N         139.3126  142.1626  161.2010 N.ar    1  UNL1       -0.2909
     16 C         139.2058  140.9785  162.1156 C.ar    1  UNL1        0.0980
     17 N         139.9939  140.0183  165.8847 N.pl3   1  UNL1       -0.3033
     18 C         141.4061  140.2073  166.3538 C.3     1  UNL1        0.0912
     19 C         141.3927  140.2668  167.8526 C.3     1  UNL1        0.0281
     20 C         142.4905  140.4398  168.8600 C.3     1  UNL1        0.0684
     21 C         142.1677  140.4607  170.3248 C.3     1  UNL1        0.2653
     22 F         142.3617  140.5446  171.8097 F       1  UNL1       -0.2043
     23 F         143.6555  140.6420  170.3832 F       1  UNL1       -0.2043
     24 C         140.7473  140.3085  170.7820 C.3     1  UNL1        0.0820
     25 C         139.6495  140.1355  169.7746 C.3     1  UNL1        0.0579
     26 N         138.2291  139.9833  170.2318 N.3     1  UNL1       -0.3220
     27 C         139.9722  140.1146  168.3099 C.3     1  UNL1        0.0360
     28 C         139.1077  139.9610  167.0936 C.3     1  UNL1        0.0923
     29 H         137.6202  139.8770  169.4204 H       1  UNL1        0.1188
     30 H         137.9512  140.8109  170.7593 H       1  UNL1        0.1188
     31 C         137.8634  140.6424  157.8335 C.2     1  UNL1        0.0775
     32 O         136.4020  140.5394  157.5116 O.co2   1  UNL1       -0.5444
     33 O         138.8774  140.6333  156.7282 O.co2   1  UNL1       -0.5444
@<TRIPOS>UNITY_ATOM_ATTR
32 1
charge -1
@<TRIPOS>BOND
     1     2     1    1
     2     2     3    1
     3     3     4    1
     4     4     5    1
     5     5     6   ar
     6     6    17    1
     7    17    18    1
     8    19    18    1
     9    19    20    1
    10    20    21    1
    11    21    22    1
    12    21    23    1
    13    21    24    1
    14    24    25    1
    15    25    26    1
    16    25    27    1
    17    27    28    1
    18     6     7   ar
    19     7     8    1
    20     7     9   ar
    21     9    10   ar
    22    10    11   ar
    23    11    12   ar
    24    12    31    1
    25    31    32   ar
    26    31    33   ar
    27    12    13   ar
    28    13    14    2
    29    13    15   ar
    30    15    16   ar
    31    15     2    1
    32    16     5   ar
    33    28    17    1
    34    16    10   ar
    35    27    19    1
    36    26    29    1
    37    26    30    1
@<TRIPOS>MOLECULE
*****
 33 37 0 0 0
SMALL
GASTEIGER

@<TRIPOS>ATOM
      1 C         137.8290  138.8446  166.4713 C.3     1  UNL1        0.0285
      2 C         139.0125  139.6122  165.9612 C.3     1  UNL1        0.1321
      3 C         139.2677  139.7040  164.4860 C.3     1  UNL1        0.2279
      4 O         140.4512  140.4716  163.9759 O.3     1  UNL1       -0.4707
      5 C         141.3795  141.1473  164.9411 C.ar    1  UNL1        0.1697
      6 C         142.5630  141.9149  164.4310 C.ar    1  UNL1        0.1115
      7 C         143.4913  142.5906  165.3962 C.ar    1  UNL1        0.1564
      8 F         144.6748  143.3582  164.8861 F       1  UNL1       -0.2028
      9 C         143.2362  142.4988  166.8715 C.ar    1  UNL1        0.0326
     10 C         142.0527  141.7312  167.3816 C.ar    1  UNL1        0.0214
     11 C         141.7975  141.6394  168.8568 C.ar    1  UNL1        0.0075
     12 C         140.6140  140.8718  169.3669 C.ar    1  UNL1        0.0702
     13 C         139.6857  140.1961  168.4017 C.ar    1  UNL1        0.2620
     14 O         138.5022  139.4285  168.9118 O.2     1  UNL1       -0.2669
     15 N         139.9408  140.2879  166.9264 N.ar    1  UNL1       -0.2909
     16 C         141.1243  141.0555  166.4163 C.ar    1  UNL1        0.0980
     17 N         142.8182  142.0068  162.9557 N.pl3   1  UNL1       -0.3033
     18 C         143.5292  140.9850  162.1186 C.3     1  UNL1        0.0912
     19 C         143.5577  141.4832  160.7040 C.3     1  UNL1        0.0281
     20 C         144.1254  140.8980  159.4450 C.3     1  UNL1        0.0684
     21 C         143.9997  141.6423  158.1488 C.3     1  UNL1        0.2653
     22 F         144.1306  141.9636  156.6895 F       1  UNL1       -0.2043
     23 F         144.7385  140.4244  157.6792 F       1  UNL1       -0.2043
     24 C         143.3063  142.9719  158.1116 C.3     1  UNL1        0.0820
     25 C         142.7386  143.5572  159.3706 C.3     1  UNL1        0.0579
     26 N         142.0452  144.8868  159.3335 N.3     1  UNL1       -0.3220
     27 C         142.8643  142.8129  160.6668 C.3     1  UNL1        0.0360
     28 C         142.4073  143.1364  162.0585 C.3     1  UNL1        0.0923
     29 H         141.7245  145.1292  160.2709 H       1  UNL1        0.1188
     30 H         141.2451  144.8354  158.7030 H       1  UNL1        0.1188
     31 C         140.3588  140.7800  170.8422 C.2     1  UNL1        0.0775
     32 O         140.6296  141.9619  171.7252 O.co2   1  UNL1       -0.5444
     33 O         139.8329  139.5062  171.4345 O.co2   1  UNL1       -0.5444
@<TRIPOS>UNITY_ATOM_ATTR
32 1
charge -1
@<TRIPOS>BOND
     1     2     1    1
     2     2     3    1
     3     3     4    1
     4     4     5    1
     5     5     6   ar
     6     6    17    1
     7    17    18    1
     8    19    18    1
     9    19    20    1
    10    20    21    1
    11    21    22    1
    12    21    23    1
    13    21    24    1
    14    24    25    1
    15    25    26    1
    16    25    27    1
    17    27    28    1
    18     6     7   ar
    19     7     8    1
    20     7     9   ar
    21     9    10   ar
    22    10    11   ar
    23    11    12   ar
    24    12    31    1
    25    31    32   ar
    26    31    33   ar
    27    12    13   ar
    28    13    14    2
    29    13    15   ar
    30    15    16   ar
    31    15     2    1
    32    16     5   ar
    33    28    17    1
    34    16    10   ar
    35    27    19    1
    36    26    29    1
    37    26    30    1
@<TRIPOS>MOLECULE
*****
 33 37 0 0 0
SMALL
GASTEIGER

@<TRIPOS>ATOM
      1 C         137.9917  139.1923  160.8514 C.3     1  UNL1        0.0285
      2 C         139.2044  139.2987  161.7278 C.3     1  UNL1        0.1321
      3 C         139.0611  139.7291  163.1575 C.3     1  UNL1        0.2279
      4 O         140.2739  139.8355  164.0338 O.3     1  UNL1       -0.4707
      5 C         141.6299  139.5115  163.4804 C.ar    1  UNL1        0.1697
      6 C         142.8426  139.6179  164.3568 C.ar    1  UNL1        0.1115
      7 C         144.1986  139.2939  163.8034 C.ar    1  UNL1        0.1564
      8 F         145.4113  139.4003  164.6797 F       1  UNL1       -0.2028
      9 C         144.3419  138.8635  162.3735 C.ar    1  UNL1        0.0326
     10 C         143.1291  138.7571  161.4972 C.ar    1  UNL1        0.0214
     11 C         143.2724  138.3267  160.0675 C.ar    1  UNL1        0.0075
     12 C         142.0596  138.2203  159.1911 C.ar    1  UNL1        0.0702
     13 C         140.7037  138.5443  159.7445 C.ar    1  UNL1        0.2620
     14 O         139.4909  138.4379  158.8682 O.2     1  UNL1       -0.2669
     15 N         140.5604  138.9747  161.1744 N.ar    1  UNL1       -0.2909
     16 C         141.7731  139.0811  162.0507 C.ar    1  UNL1        0.0980
     17 N         142.6993  140.0483  165.7865 N.pl3   1  UNL1       -0.3033
     18 C         142.4272  141.4440  166.2641 C.3     1  UNL1        0.0912
     19 C         142.3628  141.4169  167.7625 C.3     1  UNL1        0.0281
     20 C         142.1226  142.4959  168.7764 C.3     1  UNL1        0.0684
     21 C         142.1146  142.1624  170.2389 C.3     1  UNL1        0.2653
     22 F         142.0139  142.3411  171.7247 F       1  UNL1       -0.2043
     23 F         141.8474  143.6368  170.3064 F       1  UNL1       -0.2043
     24 C         142.3469  140.7500  170.6874 C.3     1  UNL1        0.0820
     25 C         142.5871  139.6711  169.6734 C.3     1  UNL1        0.0579
     26 N         142.8194  138.2587  170.1219 N.3     1  UNL1       -0.3220
     27 C         142.5950  140.0045  168.2110 C.3     1  UNL1        0.0360
     28 C         142.8030  139.1586  166.9897 C.3     1  UNL1        0.0923
     29 H         142.9638  137.6626  169.3069 H       1  UNL1        0.1188
     30 H         142.0072  137.9298  170.6440 H       1  UNL1        0.1188
     31 C         142.2029  137.7898  157.7613 C.2     1  UNL1        0.0775
     32 O         141.8872  138.7506  156.6536 O.co2   1  UNL1       -0.5444
     33 O         142.6620  136.3986  157.4394 O.co2   1  UNL1       -0.5444
@<TRIPOS>UNITY_ATOM_ATTR
32 1
charge -1
@<TRIPOS>BOND
     1     2     1    1
     2     2     3    1
     3     3     4    1
     4     4     5    1
     5     5     6   ar
     6     6    17    1
     7    17    18    1
     8    19    18    1
     9    19    20    1
    10    20    21    1
    11    21    22    1
    12    21    23    1
    13    21    24    1
    14    24    25    1
    15    25    26    1
    16    25    27    1
    17    27    28    1
    18     6     7   ar
    19     7     8    1
    20     7     9   ar
    21     9    10   ar
    22    10    11   ar
    23    11    12   ar
    24    12    31    1
    25    31    32   ar
    26    31    33   ar
    27    12    13   ar
    28    13    14    2
    29    13    15   ar
    30    15    16   ar
    31    15     2    1
    32    16     5   ar
    33    28    17    1
    34    16    10   ar
    35    27    19    1
    36    26    29    1
    37    26    30    1
@<TRIPOS>MOLECULE
*****
 33 37 0 0 0
SMALL
GASTEIGER

@<TRIPOS>ATOM
      1 C         142.9587  137.6360  160.7860 C.3     1  UNL1        0.0285
      2 C         142.9627  138.8672  161.6428 C.3     1  UNL1        0.1321
      3 C         142.5839  138.7743  163.0911 C.3     1  UNL1        0.2279
      4 O         142.5879  140.0055  163.9480 O.3     1  UNL1       -0.4707
      5 C         142.9707  141.3296  163.3564 C.ar    1  UNL1        0.1697
      6 C         142.9747  142.5608  164.2132 C.ar    1  UNL1        0.1115
      7 C         143.3575  143.8850  163.6217 C.ar    1  UNL1        0.1564
      8 F         143.3615  145.1162  164.4785 F       1  UNL1       -0.2028
      9 C         143.7364  143.9780  162.1733 C.ar    1  UNL1        0.0326
     10 C         143.7324  142.7468  161.3164 C.ar    1  UNL1        0.0214
     11 C         144.1112  142.8398  159.8681 C.ar    1  UNL1        0.0075
     12 C         144.1072  141.6086  159.0113 C.ar    1  UNL1        0.0702
     13 C         143.7244  140.2844  159.6028 C.ar    1  UNL1        0.2620
     14 O         143.7204  139.0532  158.7460 O.2     1  UNL1       -0.2669
     15 N         143.3455  140.1914  161.0512 N.ar    1  UNL1       -0.2909
     16 C         143.3495  141.4226  161.9081 C.ar    1  UNL1        0.0980
     17 N         142.5959  142.4679  165.6616 N.pl3   1  UNL1       -0.3033
     18 C         141.2151  142.2325  166.1985 C.3     1  UNL1        0.0912
     19 C         141.2971  142.2131  167.6961 C.3     1  UNL1        0.0281
     20 C         140.2533  142.0209  168.7561 C.3     1  UNL1        0.0684
     21 C         140.6409  142.0521  170.2048 C.3     1  UNL1        0.2653
     22 F         140.5164  141.9993  171.6986 F       1  UNL1       -0.2043
     23 F         139.1663  141.8104  170.3348 F       1  UNL1       -0.2043
     24 C         142.0723  142.2754  170.5936 C.3     1  UNL1        0.0820
     25 C         143.1161  142.4676  169.5336 C.3     1  UNL1        0.0579
     26 N         144.5475  142.6909  169.9223 N.3     1  UNL1       -0.3220
     27 C         142.7285  142.4364  168.0849 C.3     1  UNL1        0.0360
     28 C         143.5312  142.5939  166.8275 C.3     1  UNL1        0.0923
     29 H         145.1149  142.8011  169.0819 H       1  UNL1        0.1188
     30 H         144.8837  141.8898  170.4568 H       1  UNL1        0.1188
     31 C         144.4861  141.7016  157.5628 C.2     1  UNL1        0.0775
     32 O         145.9319  141.7642  157.1683 O.co2   1  UNL1       -0.5444
     33 O         143.4191  141.7320  156.5090 O.co2   1  UNL1       -0.5444
@<TRIPOS>UNITY_ATOM_ATTR
32 1
charge -1
@<TRIPOS>BOND
     1     2     1    1
     2     2     3    1
     3     3     4    1
     4     4     5    1
     5     5     6   ar
     6     6    17    1
     7    17    18    1
     8    19    18    1
     9    19    20    1
    10    20    21    1
    11    21    22    1
    12    21    23    1
    13    21    24    1
    14    24    25    1
    15    25    26    1
    16    25    27    1
    17    27    28    1
    18     6     7   ar
    19     7     8    1
    20     7     9   ar
    21     9    10   ar
    22    10    11   ar
    23    11    12   ar
    24    12    31    1
    25    31    32   ar
    26    31    33   ar
    27    12    13   ar
    28    13    14    2
    29    13    15   ar
    30    15    16   ar
    31    15     2    1
    32    16     5   ar
    33    28    17    1
    34    16    10   ar
    35    27    19    1
    36    26    29    1
    37    26    30    1
@<TRIPOS>MOLECULE
*****
 33 37 0 0 0
SMALL
GASTEIGER

@<TRIPOS>ATOM
      1 C         137.3594  138.3855  167.5205 C.3     1  UNL1        0.0285
      2 C         138.4878  138.9237  166.6917 C.3     1  UNL1        0.1321
      3 C         138.6247  138.5147  165.2550 C.3     1  UNL1        0.2279
      4 O         139.7532  139.0529  164.4262 O.3     1  UNL1       -0.4707
      5 C         140.7447  140.0002  165.0341 C.ar    1  UNL1        0.1697
      6 C         141.8732  140.5384  164.2053 C.ar    1  UNL1        0.1115
      7 C         142.8648  141.4856  164.8131 C.ar    1  UNL1        0.1564
      8 F         143.9932  142.0239  163.9843 F       1  UNL1       -0.2028
      9 C         142.7279  141.8947  166.2498 C.ar    1  UNL1        0.0326
     10 C         141.5995  141.3564  167.0786 C.ar    1  UNL1        0.0214
     11 C         141.4626  141.7654  168.5152 C.ar    1  UNL1        0.0075
     12 C         140.3341  141.2272  169.3440 C.ar    1  UNL1        0.0702
     13 C         139.3426  140.2799  168.7362 C.ar    1  UNL1        0.2620
     14 O         138.2141  139.7417  169.5650 O.2     1  UNL1       -0.2669
     15 N         139.4794  139.8709  167.2995 N.ar    1  UNL1       -0.2909
     16 C         140.6079  140.4092  166.4707 C.ar    1  UNL1        0.0980
     17 N         142.0101  140.1294  162.7686 N.pl3   1  UNL1       -0.3033
     18 C         142.3953  138.7672  162.2725 C.3     1  UNL1        0.0912
     19 C         142.4091  138.8067  160.7731 C.3     1  UNL1        0.0281
     20 C         142.7160  137.7592  159.7443 C.3     1  UNL1        0.0684
     21 C         142.6462  138.0983  158.2847 C.3     1  UNL1        0.2653
     22 F         142.7155  137.9363  156.7952 F       1  UNL1       -0.2043
     23 F         143.0470  136.6555  158.1981 F       1  UNL1       -0.2043
     24 C         142.2694  139.4848  157.8541 C.3     1  UNL1        0.0820
     25 C         141.9625  140.5323  158.8830 C.3     1  UNL1        0.0579
     26 N         141.5857  141.9189  158.4523 N.3     1  UNL1       -0.3220
     27 C         142.0323  140.1933  160.3424 C.3     1  UNL1        0.0360
     28 C         141.7857  141.0108  161.5758 C.3     1  UNL1        0.0923
     29 H         141.4125  142.4954  159.2758 H       1  UNL1        0.1188
     30 H         140.7416  141.8799  157.8810 H       1  UNL1        0.1188
     31 C         140.1973  141.6362  170.7807 C.2     1  UNL1        0.0775
     32 O         140.6848  140.7265  171.8692 O.co2   1  UNL1       -0.5444
     33 O         139.5730  142.9549  171.1289 O.co2   1  UNL1       -0.5444
@<TRIPOS>UNITY_ATOM_ATTR
32 1
charge -1
@<TRIPOS>BOND
     1     2     1    1
     2     2     3    1
     3     3     4    1
     4     4     5    1
     5     5     6   ar
     6     6    17    1
     7    17    18    1
     8    19    18    1
     9    19    20    1
    10    20    21    1
    11    21    22    1
    12    21    23    1
    13    21    24    1
    14    24    25    1
    15    25    26    1
    16    25    27    1
    17    27    28    1
    18     6     7   ar
    19     7     8    1
    20     7     9   ar
    21     9    10   ar
    22    10    11   ar
    23    11    12   ar
    24    12    31    1
    25    31    32   ar
    26    31    33   ar
    27    12    13   ar
    28    13    14    2
    29    13    15   ar
    30    15    16   ar
    31    15     2    1
    32    16     5   ar
    33    28    17    1
    34    16    10   ar
    35    27    19    1
    36    26    29    1
    37    26    30    1
@<TRIPOS>MOLECULE
*****
 33 37 0 0 0
SMALL
GASTEIGER

@<TRIPOS>ATOM
      1 C         138.0309  138.8353  166.9746 C.3     1  UNL1        0.0285
      2 C         139.2151  139.5308  166.3714 C.3     1  UNL1        0.1321
      3 C         139.5309  139.3486  164.9164 C.3     1  UNL1        0.2279
      4 O         140.7151  140.0441  164.3131 O.3     1  UNL1       -0.4707
      5 C         141.5835  140.9218  165.1648 C.ar    1  UNL1        0.1697
      6 C         142.7677  141.6173  164.5615 C.ar    1  UNL1        0.1115
      7 C         143.6361  142.4950  165.4132 C.ar    1  UNL1        0.1564
      8 F         144.8203  143.1905  164.8099 F       1  UNL1       -0.2028
      9 C         143.3203  142.6772  166.8683 C.ar    1  UNL1        0.0326
     10 C         142.1361  141.9817  167.4716 C.ar    1  UNL1        0.0214
     11 C         141.8203  142.1639  168.9266 C.ar    1  UNL1        0.0075
     12 C         140.6361  141.4684  169.5298 C.ar    1  UNL1        0.0702
     13 C         139.7677  140.5907  168.6781 C.ar    1  UNL1        0.2620
     14 O         138.5835  139.8952  169.2814 O.2     1  UNL1       -0.2669
     15 N         140.0835  140.4085  167.2231 N.ar    1  UNL1       -0.2909
     16 C         141.2677  141.1040  166.6198 C.ar    1  UNL1        0.0980
     17 N         143.0835  141.4351  163.1065 N.pl3   1  UNL1       -0.3033
     18 C         143.3645  142.5308  162.1213 C.3     1  UNL1        0.0912
     19 C         143.6284  141.8981  160.7871 C.3     1  UNL1        0.0281
     20 C         143.9609  142.4837  159.4468 C.3     1  UNL1        0.0684
     21 C         144.1754  141.5825  158.2669 C.3     1  UNL1        0.2653
     22 F         144.4659  141.1450  156.8620 F       1  UNL1       -0.2043
     23 F         144.3942  142.9173  157.6185 F       1  UNL1       -0.2043
     24 C         144.0574  140.0959  158.4275 C.3     1  UNL1        0.0820
     25 C         143.7249  139.5103  159.7679 C.3     1  UNL1        0.0579
     26 N         143.6069  138.0236  159.9284 N.3     1  UNL1       -0.3220
     27 C         143.5104  140.4114  160.9477 C.3     1  UNL1        0.0360
     28 C         143.1736  140.1252  162.3812 C.3     1  UNL1        0.0923
     29 H         143.3777  137.8034  160.8976 H       1  UNL1        0.1188
     30 H         144.4930  137.5834  159.6801 H       1  UNL1        0.1188
     31 C         140.3204  141.6506  170.9849 C.2     1  UNL1        0.0775
     32 O         140.7251  140.6013  171.9773 O.co2   1  UNL1       -0.5444
     33 O         139.5999  142.8823  171.4475 O.co2   1  UNL1       -0.5444
@<TRIPOS>UNITY_ATOM_ATTR
32 1
charge -1
@<TRIPOS>BOND
     1     2     1    1
     2     2     3    1
     3     3     4    1
     4     4     5    1
     5     5     6   ar
     6     6    17    1
     7    17    18    1
     8    19    18    1
     9    19    20    1
    10    20    21    1
    11    21    22    1
    12    21    23    1
    13    21    24    1
    14    24    25    1
    15    25    26    1
    16    25    27    1
    17    27    28    1
    18     6     7   ar
    19     7     8    1
    20     7     9   ar
    21     9    10   ar
    22    10    11   ar
    23    11    12   ar
    24    12    31    1
    25    31    32   ar
    26    31    33   ar
    27    12    13   ar
    28    13    14    2
    29    13    15   ar
    30    15    16   ar
    31    15     2    1
    32    16     5   ar
    33    28    17    1
    34    16    10   ar
    35    27    19    1
    36    26    29    1
    37    26    30    1
@<TRIPOS>MOLECULE
*****
 33 37 0 0 0
SMALL
GASTEIGER

@<TRIPOS>ATOM
      1 C         138.4243  139.4800  166.7395 C.3     1  UNL1        0.0285
      2 C         139.4243  140.3722  166.0657 C.3     1  UNL1        0.1321
      3 C         139.2187  140.7857  164.6386 C.3     1  UNL1        0.2279
      4 O         140.2187  141.6780  163.9648 O.3     1  UNL1       -0.4707
      5 C         141.4242  142.1566  164.7181 C.ar    1  UNL1        0.1697
      6 C         142.4242  143.0488  164.0443 C.ar    1  UNL1        0.1115
      7 C         143.6298  143.5275  164.7976 C.ar    1  UNL1        0.1564
      8 F         144.6298  144.4197  164.1238 F       1  UNL1       -0.2028
      9 C         143.8353  143.1140  166.2248 C.ar    1  UNL1        0.0326
     10 C         142.8354  142.2218  166.8986 C.ar    1  UNL1        0.0214
     11 C         143.0409  141.8082  168.3257 C.ar    1  UNL1        0.0075
     12 C         142.0409  140.9160  168.9995 C.ar    1  UNL1        0.0702
     13 C         140.8354  140.4374  168.2462 C.ar    1  UNL1        0.2620
     14 O         139.8354  139.5452  168.9200 O.2     1  UNL1       -0.2669
     15 N         140.6298  140.8509  166.8190 N.ar    1  UNL1       -0.2909
     16 C         141.6298  141.7431  166.1452 C.ar    1  UNL1        0.0980
     17 N         142.2187  143.4624  162.6172 N.pl3   1  UNL1       -0.3033
     18 C         141.2113  144.4585  162.1242 C.3     1  UNL1        0.0912
     19 C         141.3544  144.5642  160.6348 C.3     1  UNL1        0.0281
     20 C         140.6285  145.3877  159.6126 C.3     1  UNL1        0.0684
     21 C         140.9985  145.2805  158.1629 C.3     1  UNL1        0.2653
     22 F         140.9863  145.5261  156.6833 F       1  UNL1       -0.2043
     23 F         139.8984  146.2965  158.0766 F       1  UNL1       -0.2043
     24 C         142.0943  144.3497  157.7353 C.3     1  UNL1        0.0820
     25 C         142.8202  143.5262  158.7575 C.3     1  UNL1        0.0579
     26 N         143.9160  142.5954  158.3300 N.3     1  UNL1       -0.3220
     27 C         142.4503  143.6334  160.2072 C.3     1  UNL1        0.0360
     28 C         142.9845  142.9524  161.4324 C.3     1  UNL1        0.0923
     29 H         144.2962  142.1193  159.1480 H       1  UNL1        0.1188
     30 H         144.6557  143.1284  157.8725 H       1  UNL1        0.1188
     31 C         142.2465  140.5025  170.4267 C.2     1  UNL1        0.0775
     32 O         143.3277  139.5231  170.7755 O.co2   1  UNL1       -0.5444
     33 O         141.3708  141.0685  171.5051 O.co2   1  UNL1       -0.5444
@<TRIPOS>UNITY_ATOM_ATTR
32 1
charge -1
@<TRIPOS>BOND
     1     2     1    1
     2     2     3    1
     3     3     4    1
     4     4     5    1
     5     5     6   ar
     6     6    17    1
     7    17    18    1
     8    19    18    1
     9    19    20    1
    10    20    21    1
    11    21    22    1
    12    21    23    1
    13    21    24    1
    14    24    25    1
    15    25    26    1
    16    25    27    1
    17    27    28    1
    18     6     7   ar
    19     7     8    1
    20     7     9   ar
    21     9    10   ar
    22    10    11   ar
    23    11    12   ar
    24    12    31    1
    25    31    32   ar
    26    31    33   ar
    27    12    13   ar
    28    13    14    2
    29    13    15   ar
    30    15    16   ar
    31    15     2    1
    32    16     5   ar
    33    28    17    1
    34    16    10   ar
    35    27    19    1
    36    26    29    1
    37    26    30    1
@<TRIPOS>MOLECULE
*****
 33 37 0 0 0
SMALL
GASTEIGER

@<TRIPOS>ATOM
      1 C         143.3678  142.6541  166.6424 C.3     1  UNL1        0.0285
      2 C         142.5313  141.7240  165.8146 C.3     1  UNL1        0.1321
      3 C         142.8472  141.5230  164.3622 C.3     1  UNL1        0.2279
      4 O         142.0107  140.5929  163.5344 O.3     1  UNL1       -0.4707
      5 C         140.8583  139.8639  164.1591 C.ar    1  UNL1        0.1697
      6 C         140.0217  138.9338  163.3313 C.ar    1  UNL1        0.1115
      7 C         138.8693  138.2048  163.9560 C.ar    1  UNL1        0.1564
      8 F         138.0328  137.2747  163.1282 F       1  UNL1       -0.2028
      9 C         138.5533  138.4058  165.4085 C.ar    1  UNL1        0.0326
     10 C         139.3898  139.3359  166.2363 C.ar    1  UNL1        0.0214
     11 C         139.0738  139.5370  167.6888 C.ar    1  UNL1        0.0075
     12 C         139.9103  140.4670  168.5165 C.ar    1  UNL1        0.0702
     13 C         141.0628  141.1961  167.8919 C.ar    1  UNL1        0.2620
     14 O         141.8993  142.1261  168.7196 O.2     1  UNL1       -0.2669
     15 N         141.3788  140.9950  166.4393 N.ar    1  UNL1       -0.2909
     16 C         140.5423  140.0649  165.6115 C.ar    1  UNL1        0.0980
     17 N         140.3377  138.7328  161.8788 N.pl3   1  UNL1       -0.3033
     18 C         141.5830  138.1051  161.3260 C.3     1  UNL1        0.0912
     19 C         141.4788  138.1085  159.8297 C.3     1  UNL1        0.0281
     20 C         142.4073  137.6195  158.7578 C.3     1  UNL1        0.0684
     21 C         142.0261  137.7602  157.3138 C.3     1  UNL1        0.2653
     22 F         142.1099  137.6716  155.8189 F       1  UNL1       -0.2043
     23 F         143.3648  137.0998  157.1667 F       1  UNL1       -0.2043
     24 C         140.7165  138.3899  156.9418 C.3     1  UNL1        0.0820
     25 C         139.7881  138.8789  158.0137 C.3     1  UNL1        0.0579
     26 N         138.4785  139.5086  157.6416 N.3     1  UNL1       -0.3220
     27 C         140.1692  138.7382  159.4576 C.3     1  UNL1        0.0360
     28 C         139.4639  139.1240  160.7241 C.3     1  UNL1        0.0923
     29 H         137.9791  139.7802  158.4885 H       1  UNL1        0.1188
     30 H         137.9167  138.8392  157.1155 H       1  UNL1        0.1188
     31 C         139.5943  140.6681  169.9691 C.2     1  UNL1        0.0775
     32 O         139.2226  142.0307  170.4742 O.co2   1  UNL1       -0.5444
     33 O         139.6500  139.5065  170.9165 O.co2   1  UNL1       -0.5444
@<TRIPOS>UNITY_ATOM_ATTR
32 1
charge -1
@<TRIPOS>BOND
     1     2     1    1
     2     2     3    1
     3     3     4    1
     4     4     5    1
     5     5     6   ar
     6     6    17    1
     7    17    18    1
     8    19    18    1
     9    19    20    1
    10    20    21    1
    11    21    22    1
    12    21    23    1
    13    21    24    1
    14    24    25    1
    15    25    26    1
    16    25    27    1
    17    27    28    1
    18     6     7   ar
    19     7     8    1
    20     7     9   ar
    21     9    10   ar
    22    10    11   ar
    23    11    12   ar
    24    12    31    1
    25    31    32   ar
    26    31    33   ar
    27    12    13   ar
    28    13    14    2
    29    13    15   ar
    30    15    16   ar
    31    15     2    1
    32    16     5   ar
    33    28    17    1
    34    16    10   ar
    35    27    19    1
    36    26    29    1
    37    26    30    1
@<TRIPOS>MOLECULE
*****
 33 37 0 0 0
SMALL
GASTEIGER

@<TRIPOS>ATOM
      1 C         143.8631  138.6285  165.6802 C.3     1  UNL1        0.0285
      2 C         143.0288  139.7747  165.1903 C.3     1  UNL1        0.1321
      3 C         143.0369  140.1403  163.7355 C.3     1  UNL1        0.2279
      4 O         142.2025  141.2865  163.2456 O.3     1  UNL1       -0.4707
      5 C         141.3600  142.0671  164.2103 C.ar    1  UNL1        0.1697
      6 C         140.5257  143.2133  163.7204 C.ar    1  UNL1        0.1115
      7 C         139.6832  143.9939  164.6851 C.ar    1  UNL1        0.1564
      8 F         138.8488  145.1401  164.1952 F       1  UNL1       -0.2028
      9 C         139.6750  143.6283  166.1399 C.ar    1  UNL1        0.0326
     10 C         140.5093  142.4821  166.6299 C.ar    1  UNL1        0.0214
     11 C         140.5012  142.1165  168.0846 C.ar    1  UNL1        0.0075
     12 C         141.3355  140.9703  168.5745 C.ar    1  UNL1        0.0702
     13 C         142.1781  140.1897  167.6098 C.ar    1  UNL1        0.2620
     14 O         143.0124  139.0435  168.0998 O.2     1  UNL1       -0.2669
     15 N         142.1862  140.5553  166.1550 N.ar    1  UNL1       -0.2909
     16 C         141.3519  141.7015  165.6650 C.ar    1  UNL1        0.0980
     17 N         140.5338  143.5789  162.2657 N.pl3   1  UNL1       -0.3033
     18 C         141.4499  144.5699  161.6107 C.3     1  UNL1        0.0912
     19 C         141.1096  144.6212  160.1507 C.3     1  UNL1        0.0281
     20 C         141.6798  145.4175  159.0146 C.3     1  UNL1        0.0684
     21 C         141.1237  145.2545  157.6310 C.3     1  UNL1        0.2653
     22 F         140.9362  145.4480  156.1555 F       1  UNL1       -0.2043
     23 F         142.1849  146.2809  157.3660 F       1  UNL1       -0.2043
     24 C         139.9974  144.2953  157.3836 C.3     1  UNL1        0.0820
     25 C         139.4272  143.4990  158.5197 C.3     1  UNL1        0.0579
     26 N         138.3009  142.5398  158.2723 N.3     1  UNL1       -0.3220
     27 C         139.9832  143.6620  159.9033 C.3     1  UNL1        0.0360
     28 C         139.6274  143.0178  161.2104 C.3     1  UNL1        0.0923
     29 H         138.0403  142.0879  159.1489 H       1  UNL1        0.1188
     30 H         138.5982  141.8323  157.6004 H       1  UNL1        0.1188
     31 C         141.3274  140.6047  170.0293 C.2     1  UNL1        0.0775
     32 O         142.2006  141.3498  170.9948 O.co2   1  UNL1       -0.5444
     33 O         140.4459  139.4941  170.5186 O.co2   1  UNL1       -0.5444
@<TRIPOS>UNITY_ATOM_ATTR
32 1
charge -1
@<TRIPOS>BOND
     1     2     1    1
     2     2     3    1
     3     3     4    1
     4     4     5    1
     5     5     6   ar
     6     6    17    1
     7    17    18    1
     8    19    18    1
     9    19    20    1
    10    20    21    1
    11    21    22    1
    12    21    23    1
    13    21    24    1
    14    24    25    1
    15    25    26    1
    16    25    27    1
    17    27    28    1
    18     6     7   ar
    19     7     8    1
    20     7     9   ar
    21     9    10   ar
    22    10    11   ar
    23    11    12   ar
    24    12    31    1
    25    31    32   ar
    26    31    33   ar
    27    12    13   ar
    28    13    14    2
    29    13    15   ar
    30    15    16   ar
    31    15     2    1
    32    16     5   ar
    33    28    17    1
    34    16    10   ar
    35    27    19    1
    36    26    29    1
    37    26    30    1
