@<TRIPOS>MOLECULE
*****
 27 30 0 0 0
SMALL
GASTEIGER

@<TRIPOS>ATOM
      1 C         139.7229  139.4716  165.2056 C.ar    1  UNL1        0.0344
      2 C         140.2811  138.1524  164.7606 C.ar    1  UNL1        0.0061
      3 C         139.9915  137.6428  163.3799 C.ar    1  UNL1        0.0370
      4 C         139.1436  138.4525  162.4442 C.ar    1  UNL1        0.1386
      5 C         138.5854  139.7717  162.8891 C.ar    1  UNL1        0.0370
      6 C         138.8750  140.2812  164.2698 C.ar    1  UNL1        0.0061
      7 C         137.8138  138.8975  167.4474 C.3     1  UNL1        0.1350
      8 N         139.0579  139.6942  167.7073 N.ar    1  UNL1       -0.2786
      9 C         140.0125  139.9813  166.5864 C.ar    1  UNL1        0.1460
     10 N         141.2566  140.7779  166.8462 N.ar    1  UNL1       -0.2280
     11 C         141.5462  141.2875  168.2269 C.ar    1  UNL1        0.0875
     12 C         142.7903  142.0842  168.4867 C.ar    1  UNL1        0.0193
     13 C         143.0798  142.5938  169.8675 C.ar    1  UNL1        0.0015
     14 C         142.1253  142.3067  170.9884 C.ar    1  UNL1        0.0003
     15 C         140.8812  141.5101  170.7286 C.ar    1  UNL1        0.0063
     16 C         140.5916  141.0005  169.3479 C.ar    1  UNL1        0.0739
     17 C         139.3475  140.2038  169.0880 C.ar    1  UNL1        0.2634
     18 O         138.3930  139.9167  170.2089 O.2     1  UNL1       -0.2669
     19 O         138.8540  137.9428  161.0634 O.3     1  UNL1       -0.4754
     20 C         139.5651  138.5327  159.8817 C.3     1  UNL1        0.2068
     21 C         141.0617  138.4726  159.8004 C.3     1  UNL1        0.0646
     22 C         141.8844  139.6481  160.2382 C.3     1  UNL1        0.0759
     23 N         142.5186  139.6550  161.5975 N.3     1  UNL1       -0.2726
     24 C         143.4860  138.6368  162.1243 C.3     1  UNL1        0.0721
     25 C         143.8621  139.0339  163.5210 C.3     1  UNL1        0.0188
     26 C         143.1270  140.2975  163.8575 C.3     1  UNL1        0.0188
     27 C         142.2967  140.6813  162.6687 C.3     1  UNL1        0.0721
@<TRIPOS>BOND
     1     7     8    1
     2     8     9   ar
     3     9     1    1
     4     1     2   ar
     5     2     3   ar
     6     3     4   ar
     7     4    19    1
     8    19    20    1
     9    20    21    1
    10    21    22    1
    11    22    23    1
    12    23    24    1
    13    24    25    1
    14    25    26    1
    15    26    27    1
    16     4     5   ar
    17     5     6   ar
    18     9    10   ar
    19    10    11   ar
    20    11    12   ar
    21    12    13   ar
    22    13    14   ar
    23    14    15   ar
    24    15    16   ar
    25    16    17   ar
    26    17    18    2
    27    17     8   ar
    28     6     1   ar
    29    16    11   ar
    30    27    23    1
@<TRIPOS>MOLECULE
*****
 27 30 0 0 0
SMALL
GASTEIGER

@<TRIPOS>ATOM
      1 C         143.0089  140.1713  164.8778 C.ar    1  UNL1        0.0344
      2 C         142.0321  139.6094  163.8879 C.ar    1  UNL1        0.0061
      3 C         142.4269  139.4561  162.4490 C.ar    1  UNL1        0.0370
      4 C         143.7985  139.8649  161.9999 C.ar    1  UNL1        0.1386
      5 C         144.7753  140.4269  162.9898 C.ar    1  UNL1        0.0370
      6 C         144.3805  140.5801  164.4288 C.ar    1  UNL1        0.0061
      7 C         143.7299  138.0434  166.8658 C.3     1  UNL1        0.1350
      8 N         142.9746  139.2606  167.3108 N.ar    1  UNL1       -0.2786
      9 C         142.6142  140.3246  166.3168 C.ar    1  UNL1        0.1460
     10 N         141.8589  141.5418  166.7618 N.ar    1  UNL1       -0.2280
     11 C         141.4642  141.6950  168.2009 C.ar    1  UNL1        0.0875
     12 C         140.7089  142.9122  168.6459 C.ar    1  UNL1        0.0193
     13 C         140.3142  143.0654  170.0848 C.ar    1  UNL1        0.0015
     14 C         140.6747  142.0015  171.0788 C.ar    1  UNL1        0.0003
     15 C         141.4299  140.7843  170.6338 C.ar    1  UNL1        0.0063
     16 C         141.8247  140.6311  169.1949 C.ar    1  UNL1        0.0739
     17 C         142.5799  139.4138  168.7498 C.ar    1  UNL1        0.2634
     18 O         142.9404  138.3499  169.7438 O.2     1  UNL1       -0.2669
     19 O         144.1933  139.7116  160.5609 O.3     1  UNL1       -0.4754
     20 C         143.7421  140.7215  159.5478 C.3     1  UNL1        0.2068
     21 C         144.2279  142.1380  159.6331 C.3     1  UNL1        0.0646
     22 C         143.3037  143.2207  160.1064 C.3     1  UNL1        0.0759
     23 N         143.1283  143.4678  161.5755 N.3     1  UNL1       -0.2726
     24 C         144.1434  144.0812  162.4938 C.3     1  UNL1        0.0721
     25 C         143.5494  144.1374  163.8700 C.3     1  UNL1        0.0188
     26 C         142.1672  143.5587  163.8022 C.3     1  UNL1        0.0188
     27 C         141.9069  143.1449  162.3842 C.3     1  UNL1        0.0721
@<TRIPOS>BOND
     1     7     8    1
     2     8     9   ar
     3     9     1    1
     4     1     2   ar
     5     2     3   ar
     6     3     4   ar
     7     4    19    1
     8    19    20    1
     9    20    21    1
    10    21    22    1
    11    22    23    1
    12    23    24    1
    13    24    25    1
    14    25    26    1
    15    26    27    1
    16     4     5   ar
    17     5     6   ar
    18     9    10   ar
    19    10    11   ar
    20    11    12   ar
    21    12    13   ar
    22    13    14   ar
    23    14    15   ar
    24    15    16   ar
    25    16    17   ar
    26    17    18    2
    27    17     8   ar
    28     6     1   ar
    29    16    11   ar
    30    27    23    1
@<TRIPOS>MOLECULE
*****
 27 30 0 0 0
SMALL
GASTEIGER

@<TRIPOS>ATOM
      1 C         139.7139  141.9614  164.1206 C.ar    1  UNL1        0.0344
      2 C         138.6052  142.9507  163.9152 C.ar    1  UNL1        0.0061
      3 C         138.1679  143.3093  162.5260 C.ar    1  UNL1        0.0370
      4 C         138.8392  142.6786  161.3421 C.ar    1  UNL1        0.1386
      5 C         139.9478  141.6893  161.5474 C.ar    1  UNL1        0.0370
      6 C         140.3852  141.3308  162.9367 C.ar    1  UNL1        0.0061
      7 C         138.0955  140.0326  165.7517 C.3     1  UNL1        0.1350
      8 N         139.3421  140.6384  166.3255 N.ar    1  UNL1       -0.2786
      9 C         140.1513  141.6028  165.5099 C.ar    1  UNL1        0.1460
     10 N         141.3978  142.2086  166.0836 N.ar    1  UNL1       -0.2280
     11 C         141.8352  141.8499  167.4729 C.ar    1  UNL1        0.0875
     12 C         143.0818  142.4557  168.0466 C.ar    1  UNL1        0.0193
     13 C         143.5191  142.0970  169.4358 C.ar    1  UNL1        0.0015
     14 C         142.7099  141.1326  170.2514 C.ar    1  UNL1        0.0003
     15 C         141.4634  140.5269  169.6777 C.ar    1  UNL1        0.0063
     16 C         141.0261  140.8855  168.2885 C.ar    1  UNL1        0.0739
     17 C         139.7795  140.2797  167.7147 C.ar    1  UNL1        0.2634
     18 O         138.9703  139.3153  168.5303 O.2     1  UNL1       -0.2669
     19 O         138.4018  143.0372  159.9527 O.3     1  UNL1       -0.4754
     20 C         139.4214  143.4146  158.9193 C.3     1  UNL1        0.2068
     21 C         140.2382  144.6608  159.0917 C.3     1  UNL1        0.0646
     22 C         141.6221  144.5773  159.6645 C.3     1  UNL1        0.0759
     23 N         141.8268  144.6699  161.1476 N.3     1  UNL1       -0.2726
     24 C         140.9860  145.4603  162.1060 C.3     1  UNL1        0.0721
     25 C         141.5478  145.2673  163.4834 C.3     1  UNL1        0.0188
     26 C         142.7358  144.3577  163.3762 C.3     1  UNL1        0.0188
     27 C         142.9081  143.9885  161.9326 C.3     1  UNL1        0.0721
@<TRIPOS>BOND
     1     7     8    1
     2     8     9   ar
     3     9     1    1
     4     1     2   ar
     5     2     3   ar
     6     3     4   ar
     7     4    19    1
     8    19    20    1
     9    20    21    1
    10    21    22    1
    11    22    23    1
    12    23    24    1
    13    24    25    1
    14    25    26    1
    15    26    27    1
    16     4     5   ar
    17     5     6   ar
    18     9    10   ar
    19    10    11   ar
    20    11    12   ar
    21    12    13   ar
    22    13    14   ar
    23    14    15   ar
    24    15    16   ar
    25    16    17   ar
    26    17    18    2
    27    17     8   ar
    28     6     1   ar
    29    16    11   ar
    30    27    23    1
@<TRIPOS>MOLECULE
*****
 27 30 0 0 0
SMALL
GASTEIGER

@<TRIPOS>ATOM
      1 C         141.9230  141.6640  164.4223 C.ar    1  UNL1        0.0344
      2 C         143.0901  142.4083  163.8445 C.ar    1  UNL1        0.0061
      3 C         143.1131  142.7497  162.3841 C.ar    1  UNL1        0.0370
      4 C         141.9691  142.3468  161.5015 C.ar    1  UNL1        0.1386
      5 C         140.8021  141.6025  162.0793 C.ar    1  UNL1        0.0370
      6 C         140.7790  141.2611  163.5397 C.ar    1  UNL1        0.0061
      7 C         143.3523  139.2199  165.4141 C.3     1  UNL1        0.1350
      8 N         142.6146  140.1005  166.3787 N.ar    1  UNL1       -0.2786
      9 C         141.8999  141.3225  165.8828 C.ar    1  UNL1        0.1460
     10 N         141.1622  142.2031  166.8473 N.ar    1  UNL1       -0.2280
     11 C         141.1391  141.8616  168.3078 C.ar    1  UNL1        0.0875
     12 C         140.4014  142.7422  169.2723 C.ar    1  UNL1        0.0193
     13 C         140.3783  142.4007  170.7327 C.ar    1  UNL1        0.0015
     14 C         141.0929  141.1786  171.2286 C.ar    1  UNL1        0.0003
     15 C         141.8307  140.2981  170.2641 C.ar    1  UNL1        0.0063
     16 C         141.8537  140.6396  168.8037 C.ar    1  UNL1        0.0739
     17 C         142.5915  139.7590  167.8391 C.ar    1  UNL1        0.2634
     18 O         143.3061  138.5370  168.3349 O.2     1  UNL1       -0.2669
     19 O         141.9922  142.6883  160.0410 O.3     1  UNL1       -0.4754
     20 C         141.5011  144.0271  159.5759 C.3     1  UNL1        0.2068
     21 C         141.2235  145.1121  160.5737 C.3     1  UNL1        0.0646
     22 C         139.8221  145.3496  161.0532 C.3     1  UNL1        0.0759
     23 N         139.4257  144.9441  162.4419 N.3     1  UNL1       -0.2726
     24 C         140.2922  145.0208  163.6639 C.3     1  UNL1        0.0721
     25 C         139.4953  144.5149  164.8297 C.3     1  UNL1        0.0188
     26 C         138.1363  144.1256  164.3281 C.3     1  UNL1        0.0188
     27 C         138.0933  144.3909  162.8523 C.3     1  UNL1        0.0721
@<TRIPOS>BOND
     1     7     8    1
     2     8     9   ar
     3     9     1    1
     4     1     2   ar
     5     2     3   ar
     6     3     4   ar
     7     4    19    1
     8    19    20    1
     9    20    21    1
    10    21    22    1
    11    22    23    1
    12    23    24    1
    13    24    25    1
    14    25    26    1
    15    26    27    1
    16     4     5   ar
    17     5     6   ar
    18     9    10   ar
    19    10    11   ar
    20    11    12   ar
    21    12    13   ar
    22    13    14   ar
    23    14    15   ar
    24    15    16   ar
    25    16    17   ar
    26    17    18    2
    27    17     8   ar
    28     6     1   ar
    29    16    11   ar
    30    27    23    1
@<TRIPOS>MOLECULE
*****
 27 30 0 0 0
SMALL
GASTEIGER

@<TRIPOS>ATOM
      1 C         139.7020  139.3795  165.2522 C.ar    1  UNL1        0.0344
      2 C         140.4228  138.1814  164.7092 C.ar    1  UNL1        0.0061
      3 C         140.0948  137.6660  163.3393 C.ar    1  UNL1        0.0370
      4 C         139.0460  138.3488  162.5123 C.ar    1  UNL1        0.1386
      5 C         138.3252  139.5469  163.0553 C.ar    1  UNL1        0.0370
      6 C         138.6532  140.0622  164.4253 C.ar    1  UNL1        0.0061
      7 C         137.8232  138.8719  167.5353 C.3     1  UNL1        0.1350
      8 N         139.0906  139.6411  167.7638 N.ar    1  UNL1       -0.2786
      9 C         140.0300  139.8949  166.6222 C.ar    1  UNL1        0.1460
     10 N         141.2973  140.6641  166.8506 N.ar    1  UNL1       -0.2280
     11 C         141.6253  141.1795  168.2207 C.ar    1  UNL1        0.0875
     12 C         142.8926  141.9486  168.4491 C.ar    1  UNL1        0.0193
     13 C         143.2205  142.4640  169.8190 C.ar    1  UNL1        0.0015
     14 C         142.2811  142.2102  170.9606 C.ar    1  UNL1        0.0003
     15 C         141.0138  141.4411  170.7321 C.ar    1  UNL1        0.0063
     16 C         140.6859  140.9257  169.3622 C.ar    1  UNL1        0.0739
     17 C         139.4185  140.1565  169.1337 C.ar    1  UNL1        0.2634
     18 O         138.4791  139.9027  170.2752 O.2     1  UNL1       -0.2669
     19 O         138.7180  137.8333  161.1423 O.3     1  UNL1       -0.4754
     20 C         139.3915  138.4222  159.9384 C.3     1  UNL1        0.2068
     21 C         138.9016  139.7183  159.3640 C.3     1  UNL1        0.0646
     22 C         139.7312  140.9606  159.5008 C.3     1  UNL1        0.0759
     23 N         139.5538  141.8535  160.6928 N.3     1  UNL1       -0.2726
     24 C         138.3178  142.6313  161.0356 C.3     1  UNL1        0.0721
     25 C         138.5812  143.3840  162.3061 C.3     1  UNL1        0.0188
     26 C         139.9800  143.0712  162.7485 C.3     1  UNL1        0.0188
     27 C         140.5810  142.1254  161.7515 C.3     1  UNL1        0.0721
@<TRIPOS>BOND
     1     7     8    1
     2     8     9   ar
     3     9     1    1
     4     1     2   ar
     5     2     3   ar
     6     3     4   ar
     7     4    19    1
     8    19    20    1
     9    20    21    1
    10    21    22    1
    11    22    23    1
    12    23    24    1
    13    24    25    1
    14    25    26    1
    15    26    27    1
    16     4     5   ar
    17     5     6   ar
    18     9    10   ar
    19    10    11   ar
    20    11    12   ar
    21    12    13   ar
    22    13    14   ar
    23    14    15   ar
    24    15    16   ar
    25    16    17   ar
    26    17    18    2
    27    17     8   ar
    28     6     1   ar
    29    16    11   ar
    30    27    23    1
@<TRIPOS>MOLECULE
*****
 27 30 0 0 0
SMALL
GASTEIGER

@<TRIPOS>ATOM
      1 C         141.5953  141.3361  164.3956 C.ar    1  UNL1        0.0344
      2 C         140.6958  142.2920  163.6696 C.ar    1  UNL1        0.0061
      3 C         140.6000  142.2425  162.1735 C.ar    1  UNL1        0.0370
      4 C         141.4037  141.2370  161.4034 C.ar    1  UNL1        0.1386
      5 C         142.3031  140.2810  162.1294 C.ar    1  UNL1        0.0370
      6 C         142.3989  140.3305  163.6254 C.ar    1  UNL1        0.0061
      7 C         143.8842  142.7661  165.7055 C.3     1  UNL1        0.1350
      8 N         142.8356  142.1006  166.5467 N.ar    1  UNL1       -0.2786
      9 C         141.6911  141.3856  165.8917 C.ar    1  UNL1        0.1460
     10 N         140.6425  140.7201  166.7329 N.ar    1  UNL1       -0.2280
     11 C         140.7384  140.7696  168.2290 C.ar    1  UNL1        0.0875
     12 C         139.6898  140.1041  169.0702 C.ar    1  UNL1        0.0193
     13 C         139.7856  140.1536  170.5662 C.ar    1  UNL1        0.0015
     14 C         140.9301  140.8686  171.2212 C.ar    1  UNL1        0.0003
     15 C         141.9787  141.5341  170.3801 C.ar    1  UNL1        0.0063
     16 C         141.8828  141.4846  168.8840 C.ar    1  UNL1        0.0739
     17 C         142.9315  142.1501  168.0428 C.ar    1  UNL1        0.2634
     18 O         144.0759  142.8651  168.6977 O.2     1  UNL1       -0.2669
     19 O         141.3078  141.1875  159.9072 O.3     1  UNL1       -0.4754
     20 C         140.4587  140.1438  159.2442 C.3     1  UNL1        0.2068
     21 C         139.2488  139.6036  159.9473 C.3     1  UNL1        0.0646
     22 C         139.3417  138.3235  160.7238 C.3     1  UNL1        0.0759
     23 N         139.2829  138.3494  162.2224 N.3     1  UNL1       -0.2726
     24 C         140.0466  137.4518  163.1503 C.3     1  UNL1        0.0721
     25 C         139.6858  137.8250  164.5576 C.3     1  UNL1        0.0188
     26 C         138.6991  138.9534  164.4994 C.3     1  UNL1        0.0188
     27 C         138.4501  139.2774  163.0561 C.3     1  UNL1        0.0721
@<TRIPOS>BOND
     1     7     8    1
     2     8     9   ar
     3     9     1    1
     4     1     2   ar
     5     2     3   ar
     6     3     4   ar
     7     4    19    1
     8    19    20    1
     9    20    21    1
    10    21    22    1
    11    22    23    1
    12    23    24    1
    13    24    25    1
    14    25    26    1
    15    26    27    1
    16     4     5   ar
    17     5     6   ar
    18     9    10   ar
    19    10    11   ar
    20    11    12   ar
    21    12    13   ar
    22    13    14   ar
    23    14    15   ar
    24    15    16   ar
    25    16    17   ar
    26    17    18    2
    27    17     8   ar
    28     6     1   ar
    29    16    11   ar
    30    27    23    1
@<TRIPOS>MOLECULE
*****
 27 30 0 0 0
SMALL
GASTEIGER

@<TRIPOS>ATOM
      1 C         141.5755  140.0199  164.3089 C.ar    1  UNL1        0.0344
      2 C         142.7684  139.1271  164.1366 C.ar    1  UNL1        0.0061
      3 C         143.3203  138.8691  162.7659 C.ar    1  UNL1        0.0370
      4 C         142.6793  139.5039  161.5675 C.ar    1  UNL1        0.1386
      5 C         141.4863  140.3967  161.7398 C.ar    1  UNL1        0.0370
      6 C         140.9344  140.6547  163.1105 C.ar    1  UNL1        0.0061
      7 C         139.2375  138.4279  165.3086 C.3     1  UNL1        0.1350
      8 N         139.8545  139.4820  166.1795 N.ar    1  UNL1       -0.2786
      9 C         141.0235  140.2780  165.6796 C.ar    1  UNL1        0.1460
     10 N         141.6405  141.3320  166.5504 N.ar    1  UNL1       -0.2280
     11 C         141.0885  141.5900  167.9211 C.ar    1  UNL1        0.0875
     12 C         141.7055  142.6440  168.7919 C.ar    1  UNL1        0.0193
     13 C         141.1535  142.9020  170.1626 C.ar    1  UNL1        0.0015
     14 C         139.9845  142.1060  170.6624 C.ar    1  UNL1        0.0003
     15 C         139.3675  141.0520  169.7916 C.ar    1  UNL1        0.0063
     16 C         139.9195  140.7940  168.4210 C.ar    1  UNL1        0.0739
     17 C         139.3025  139.7400  167.5501 C.ar    1  UNL1        0.2634
     18 O         138.1335  138.9439  168.0500 O.2     1  UNL1       -0.2669
     19 O         143.2313  139.2459  160.1968 O.3     1  UNL1       -0.4754
     20 C         143.3007  140.3595  159.1944 C.3     1  UNL1        0.2068
     21 C         144.3144  141.4530  159.3572 C.3     1  UNL1        0.0646
     22 C         143.9872  142.6623  160.1823 C.3     1  UNL1        0.0759
     23 N         144.2405  142.6524  161.6607 N.3     1  UNL1       -0.2726
     24 C         145.3148  141.8788  162.3660 C.3     1  UNL1        0.0721
     25 C         145.2024  142.1627  163.8346 C.3     1  UNL1        0.0188
     26 C         144.0585  143.1118  164.0369 C.3     1  UNL1        0.0188
     27 C         143.4641  143.4145  162.6934 C.3     1  UNL1        0.0721
@<TRIPOS>BOND
     1     7     8    1
     2     8     9   ar
     3     9     1    1
     4     1     2   ar
     5     2     3   ar
     6     3     4   ar
     7     4    19    1
     8    19    20    1
     9    20    21    1
    10    21    22    1
    11    22    23    1
    12    23    24    1
    13    24    25    1
    14    25    26    1
    15    26    27    1
    16     4     5   ar
    17     5     6   ar
    18     9    10   ar
    19    10    11   ar
    20    11    12   ar
    21    12    13   ar
    22    13    14   ar
    23    14    15   ar
    24    15    16   ar
    25    16    17   ar
    26    17    18    2
    27    17     8   ar
    28     6     1   ar
    29    16    11   ar
    30    27    23    1
@<TRIPOS>MOLECULE
*****
 27 30 0 0 0
SMALL
GASTEIGER

@<TRIPOS>ATOM
      1 C         139.7436  141.3054  162.4285 C.ar    1  UNL1        0.0344
      2 C         138.6515  142.0786  161.7507 C.ar    1  UNL1        0.0061
      3 C         138.7623  142.4115  160.2924 C.ar    1  UNL1        0.0370
      4 C         139.9651  141.9712  159.5118 C.ar    1  UNL1        0.1386
      5 C         141.0573  141.1981  160.1896 C.ar    1  UNL1        0.0370
      6 C         140.9465  140.8652  161.6479 C.ar    1  UNL1        0.0061
      7 C         138.4752  138.7255  163.2860 C.3     1  UNL1        0.1350
      8 N         138.9987  139.6825  164.3157 N.ar    1  UNL1       -0.2786
      9 C         139.6329  140.9724  163.8869 C.ar    1  UNL1        0.1460
     10 N         140.1564  141.9294  164.9165 N.ar    1  UNL1       -0.2280
     11 C         140.0457  141.5964  166.3750 C.ar    1  UNL1        0.0875
     12 C         140.5692  142.5534  167.4046 C.ar    1  UNL1        0.0193
     13 C         140.4585  142.2204  168.8629 C.ar    1  UNL1        0.0015
     14 C         139.8243  140.9304  169.2917 C.ar    1  UNL1        0.0003
     15 C         139.3008  139.9735  168.2621 C.ar    1  UNL1        0.0063
     16 C         139.4115  140.3065  166.8037 C.ar    1  UNL1        0.0739
     17 C         138.8880  139.3495  165.7740 C.ar    1  UNL1        0.2634
     18 O         138.2538  138.0596  166.2027 O.2     1  UNL1       -0.2669
     19 O         140.0758  142.3042  158.0534 O.3     1  UNL1       -0.4754
     20 C         140.1429  143.7368  157.6141 C.3     1  UNL1        0.2068
     21 C         141.0533  144.6963  158.3215 C.3     1  UNL1        0.0646
     22 C         140.5004  145.6296  159.3576 C.3     1  UNL1        0.0759
     23 N         140.6927  145.3311  160.8150 N.3     1  UNL1       -0.2726
     24 C         141.8432  144.5801  161.4169 C.3     1  UNL1        0.0721
     25 C         141.6298  144.5161  162.9002 C.3     1  UNL1        0.0188
     26 C         140.3472  145.2275  163.2151 C.3     1  UNL1        0.0188
     27 C         139.7681  145.7312  161.9263 C.3     1  UNL1        0.0721
@<TRIPOS>BOND
     1     7     8    1
     2     8     9   ar
     3     9     1    1
     4     1     2   ar
     5     2     3   ar
     6     3     4   ar
     7     4    19    1
     8    19    20    1
     9    20    21    1
    10    21    22    1
    11    22    23    1
    12    23    24    1
    13    24    25    1
    14    25    26    1
    15    26    27    1
    16     4     5   ar
    17     5     6   ar
    18     9    10   ar
    19    10    11   ar
    20    11    12   ar
    21    12    13   ar
    22    13    14   ar
    23    14    15   ar
    24    15    16   ar
    25    16    17   ar
    26    17    18    2
    27    17     8   ar
    28     6     1   ar
    29    16    11   ar
    30    27    23    1
@<TRIPOS>MOLECULE
*****
 27 30 0 0 0
SMALL
GASTEIGER

@<TRIPOS>ATOM
      1 C         139.9131  142.0517  164.1232 C.ar    1  UNL1        0.0344
      2 C         138.6833  142.8681  163.8569 C.ar    1  UNL1        0.0061
      3 C         138.3454  143.2795  162.4546 C.ar    1  UNL1        0.0370
      4 C         139.2373  142.8745  161.3186 C.ar    1  UNL1        0.1386
      5 C         140.4671  142.0581  161.5849 C.ar    1  UNL1        0.0370
      6 C         140.8050  141.6467  162.9872 C.ar    1  UNL1        0.0061
      7 C         138.1372  140.1312  165.5922 C.3     1  UNL1        0.1350
      8 N         139.3632  140.6800  166.2601 N.ar    1  UNL1       -0.2786
      9 C         140.2511  141.6403  165.5256 C.ar    1  UNL1        0.1460
     10 N         141.4770  142.1891  166.1934 N.ar    1  UNL1       -0.2280
     11 C         141.8149  141.7776  167.5958 C.ar    1  UNL1        0.0875
     12 C         143.0408  142.3265  168.2636 C.ar    1  UNL1        0.0193
     13 C         143.3787  141.9150  169.6659 C.ar    1  UNL1        0.0015
     14 C         142.4908  140.9548  170.4003 C.ar    1  UNL1        0.0003
     15 C         141.2649  140.4059  169.7325 C.ar    1  UNL1        0.0063
     16 C         140.9270  140.8174  168.3302 C.ar    1  UNL1        0.0739
     17 C         139.7011  140.2686  167.6623 C.ar    1  UNL1        0.2634
     18 O         138.8131  139.3083  168.3968 O.2     1  UNL1       -0.2669
     19 O         138.8993  143.2859  159.9162 O.3     1  UNL1       -0.4754
     20 C         138.6248  142.2426  158.8740 C.3     1  UNL1        0.2068
     21 C         137.9605  140.9542  159.2594 C.3     1  UNL1        0.0646
     22 C         138.7449  139.6755  159.2559 C.3     1  UNL1        0.0759
     23 N         139.0125  138.9563  160.5447 N.3     1  UNL1       -0.2726
     24 C         140.3363  138.4104  160.9914 C.3     1  UNL1        0.0721
     25 C         140.1453  137.7734  162.3359 C.3     1  UNL1        0.0188
     26 C         138.7033  137.9256  162.7202 C.3     1  UNL1        0.0188
     27 C         138.0032  138.6567  161.6132 C.3     1  UNL1        0.0721
@<TRIPOS>BOND
     1     7     8    1
     2     8     9   ar
     3     9     1    1
     4     1     2   ar
     5     2     3   ar
     6     3     4   ar
     7     4    19    1
     8    19    20    1
     9    20    21    1
    10    21    22    1
    11    22    23    1
    12    23    24    1
    13    24    25    1
    14    25    26    1
    15    26    27    1
    16     4     5   ar
    17     5     6   ar
    18     9    10   ar
    19    10    11   ar
    20    11    12   ar
    21    12    13   ar
    22    13    14   ar
    23    14    15   ar
    24    15    16   ar
    25    16    17   ar
    26    17    18    2
    27    17     8   ar
    28     6     1   ar
    29    16    11   ar
    30    27    23    1
