@<TRIPOS>MOLECULE
*****
 39 44 0 0 0
SMALL
GASTEIGER

@<TRIPOS>ATOM
      1 C         142.6780  135.6688  157.3414 C.ar    1  UNL1        0.2400
      2 N         142.1711  135.2856  155.9826 N.ar    1  UNL1       -0.2090
      3 C         141.4955  136.3086  155.1182 C.ar    1  UNL1        0.1036
      4 C         141.1624  137.8035  155.3038 C.ar    1  UNL1        0.0384
      5 C         141.8636  137.2078  156.4885 C.ar    1  UNL1        0.0236
      6 C         142.5092  137.0748  157.8359 C.ar    1  UNL1        0.1179
      7 N         143.0292  137.4191  159.2001 N.pl3   1  UNL1       -0.2104
      8 S         143.3674  138.2033  160.4332 S.O2    1  UNL1        0.0737
      9 O         143.7962  136.7673  160.4959 O.2     1  UNL1       -0.1499
     10 O         144.0501  137.8339  161.7167 O.2     1  UNL1       -0.1499
     11 C         143.4330  139.6872  161.4947 C.ar    1  UNL1        0.1253
     12 C         144.0994  139.4351  162.8147 C.ar    1  UNL1        0.0202
     13 C         144.2381  140.5490  163.8096 C.ar    1  UNL1        0.0015
     14 C         143.7104  141.9150  163.4846 C.ar    1  UNL1        0.0046
     15 C         143.0440  142.1670  162.1646 C.ar    1  UNL1        0.0547
     16 C         142.9053  141.0531  161.1697 C.ar    1  UNL1        0.0247
     17 C         142.5293  143.5462  161.8765 C.2     1  UNL1        0.2459
     18 O         142.9172  144.2267  163.1558 O.2     1  UNL1       -0.2701
     19 N         141.8869  144.7013  161.1674 N.am    1  UNL1       -0.2989
     20 C         141.1863  145.5073  160.1140 C.3     1  UNL1        0.1161
     21 C         140.5036  145.8767  158.8304 C.3     1  UNL1        0.1487
     22 N         139.9127  145.7697  157.4559 N.ar    1  UNL1       -0.2476
     23 C         139.4777  145.1975  156.1393 C.ar    1  UNL1        0.0968
     24 C         139.2456  144.2225  155.0233 C.ar    1  UNL1        0.0441
     25 C         138.7637  145.6290  154.8248 C.ar    1  UNL1        0.1218
     26 N         139.1019  146.4133  156.0579 N.ar    1  UNL1       -0.1676
     27 C         139.2416  142.9501  154.2289 C.ar    1  UNL1        0.0597
     28 C         138.5384  143.6323  153.0930 C.ar    1  UNL1        0.1237
     29 N         138.3284  142.6221  152.0042 N.ar    1  UNL1       -0.1621
     30 N         138.9018  141.3157  152.4672 N.ar    1  UNL1       -0.2106
     31 C         139.2884  139.5346  152.2233 C.ar    1  UNL1        0.1036
     32 C         139.9557  138.4711  153.0441 C.ar    1  UNL1        0.0399
     33 C         140.4817  138.7977  154.4104 C.ar    1  UNL1        0.0860
     34 N         139.8951  140.0823  153.9048 N.ar    1  UNL1       -0.2264
     35 C         139.4662  141.5184  153.8421 C.ar    1  UNL1        0.1653
     36 H         143.3919  136.5419  159.4614 H       1  UNL1        0.1739
     37 H         142.0027  145.3975  161.8538 H       1  UNL1        0.1498
     38 C         144.1000  133.5071  157.5762 C.3     1  UNL1        0.2543
     39 O         143.3536  134.6457  158.2057 O.3     1  UNL1       -0.4553
@<TRIPOS>BOND
     1    38    39    1
     2    39     1    1
     3     1     2   ar
     4     2     3   ar
     5     3     4   ar
     6     4     5   ar
     7     5     6   ar
     8     6     7    1
     9     7     8    1
    10     8     9    2
    11     8    10    2
    12     8    11    1
    13    11    12   ar
    14    12    13   ar
    15    13    14   ar
    16    14    15   ar
    17    15    16   ar
    18    15    17    1
    19    17    18    2
    20    17    19   am
    21    19    20    1
    22    20    21    1
    23    21    22    1
    24    22    23   ar
    25    23    24   ar
    26    24    25   ar
    27    25    26   ar
    28    24    27    1
    29    27    28   ar
    30    28    29   ar
    31    29    30   ar
    32    30    31   ar
    33    31    32   ar
    34    32    33   ar
    35    33    34   ar
    36    34    35   ar
    37     6     1   ar
    38    16    11   ar
    39    26    22   ar
    40    35    27   ar
    41    33     4    1
    42    35    30   ar
    43     7    36    1
    44    19    37    1
@<TRIPOS>MOLECULE
*****
 39 44 0 0 0
SMALL
GASTEIGER

@<TRIPOS>ATOM
      1 C         139.2918  146.9391  156.8600 C.ar    1  UNL1        0.2400
      2 N         139.2508  146.8891  155.3614 N.ar    1  UNL1       -0.2090
      3 C         139.6799  145.6456  154.6404 C.ar    1  UNL1        0.1036
      4 C         140.2038  144.2725  155.1097 C.ar    1  UNL1        0.0384
      5 C         139.9054  145.2055  156.2457 C.ar    1  UNL1        0.0236
      6 C         139.7618  145.7457  157.6377 C.ar    1  UNL1        0.1179
      7 N         139.7884  145.8344  159.1348 N.pl3   1  UNL1       -0.2104
      8 S         139.9824  145.4621  160.5749 S.O2    1  UNL1        0.0737
      9 O         139.4621  146.8550  160.3774 O.2     1  UNL1       -0.1499
     10 O         139.7584  146.2089  161.8563 O.2     1  UNL1       -0.1499
     11 C         140.4400  144.3680  161.9629 C.ar    1  UNL1        0.1253
     12 C         140.2555  145.0137  163.3041 C.ar    1  UNL1        0.0202
     13 C         140.5849  144.2530  164.5543 C.ar    1  UNL1        0.0015
     14 C         141.0988  142.8468  164.4632 C.ar    1  UNL1        0.0046
     15 C         141.2833  142.2011  163.1219 C.ar    1  UNL1        0.0547
     16 C         140.9539  142.9617  161.8717 C.ar    1  UNL1        0.0247
     17 C         141.7993  140.7936  163.0720 C.2     1  UNL1        0.2459
     18 O         141.9528  140.5346  164.5415 O.2     1  UNL1       -0.2701
     19 N         142.2648  139.4712  162.5385 N.am    1  UNL1       -0.2989
     20 C         142.6293  138.3774  161.5789 C.3     1  UNL1        0.1161
     21 C         142.8534  137.6306  160.2974 C.3     1  UNL1        0.1487
     22 N         142.9127  137.3118  158.8329 N.ar    1  UNL1       -0.2476
     23 C         142.8008  137.4556  157.3440 C.ar    1  UNL1        0.0968
     24 C         142.5300  138.0462  155.9921 C.ar    1  UNL1        0.0441
     25 C         143.0494  136.6399  156.0413 C.ar    1  UNL1        0.1218
     26 N         143.2434  136.2676  157.4814 N.ar    1  UNL1       -0.1676
     27 C         142.1293  139.0199  154.9236 C.ar    1  UNL1        0.0597
     28 C         142.4552  138.0193  153.8548 C.ar    1  UNL1        0.1237
     29 N         142.1698  138.6519  152.5250 N.ar    1  UNL1       -0.1621
     30 N         141.6675  140.0434  152.7720 N.ar    1  UNL1       -0.2106
     31 C         141.0449  141.6725  152.1890 C.ar    1  UNL1        0.1036
     32 C         140.6044  142.9414  152.8568 C.ar    1  UNL1        0.0399
     33 C         140.6245  143.0477  154.3528 C.ar    1  UNL1        0.0860
     34 N         141.1221  141.6639  154.0570 N.ar    1  UNL1       -0.2264
     35 C         141.6425  140.2709  154.2544 C.ar    1  UNL1        0.1653
     36 H         139.4547  146.7536  159.2486 H       1  UNL1        0.1739
     37 H         142.4661  139.0156  163.3877 H       1  UNL1        0.1498
     38 C         138.4907  149.4099  156.8030 C.3     1  UNL1        0.2543
     39 O         138.8628  148.1826  157.5809 O.3     1  UNL1       -0.4553
@<TRIPOS>BOND
     1    38    39    1
     2    39     1    1
     3     1     2   ar
     4     2     3   ar
     5     3     4   ar
     6     4     5   ar
     7     5     6   ar
     8     6     7    1
     9     7     8    1
    10     8     9    2
    11     8    10    2
    12     8    11    1
    13    11    12   ar
    14    12    13   ar
    15    13    14   ar
    16    14    15   ar
    17    15    16   ar
    18    15    17    1
    19    17    18    2
    20    17    19   am
    21    19    20    1
    22    20    21    1
    23    21    22    1
    24    22    23   ar
    25    23    24   ar
    26    24    25   ar
    27    25    26   ar
    28    24    27    1
    29    27    28   ar
    30    28    29   ar
    31    29    30   ar
    32    30    31   ar
    33    31    32   ar
    34    32    33   ar
    35    33    34   ar
    36    34    35   ar
    37     6     1   ar
    38    16    11   ar
    39    26    22   ar
    40    35    27   ar
    41    33     4    1
    42    35    30   ar
    43     7    36    1
    44    19    37    1
@<TRIPOS>MOLECULE
*****
 39 44 0 0 0
SMALL
GASTEIGER

@<TRIPOS>ATOM
      1 C         140.0581  145.7818  155.2862 C.ar    1  UNL1        0.2400
      2 N         139.6969  146.8711  156.2522 N.ar    1  UNL1       -0.2090
      3 C         139.7862  146.6239  157.7290 C.ar    1  UNL1        0.1036
      4 C         140.1988  145.4044  158.5792 C.ar    1  UNL1        0.0384
      5 C         140.2795  145.1448  157.1040 C.ar    1  UNL1        0.0236
      6 C         140.5084  144.4453  155.7970 C.ar    1  UNL1        0.1179
      7 N         140.8608  143.3817  154.7998 N.pl3   1  UNL1       -0.2104
      8 S         141.2984  142.0691  154.2204 S.O2    1  UNL1        0.0737
      9 O         140.9490  143.0977  153.1862 O.2     1  UNL1       -0.1499
     10 O         141.4553  141.5830  152.8101 O.2     1  UNL1       -0.1499
     11 C         141.8788  140.3389  154.2723 C.ar    1  UNL1        0.1253
     12 C         142.0724  139.7441  152.9090 C.ar    1  UNL1        0.0202
     13 C         142.5466  138.3280  152.7691 C.ar    1  UNL1        0.0015
     14 C         142.8273  137.5067  153.9925 C.ar    1  UNL1        0.0046
     15 C         142.6337  138.1015  155.3558 C.ar    1  UNL1        0.0547
     16 C         142.1595  139.5177  155.4957 C.ar    1  UNL1        0.0247
     17 C         142.9249  137.2486  156.5548 C.2     1  UNL1        0.2459
     18 O         143.3454  135.9857  155.8632 O.2     1  UNL1       -0.2701
     19 N         143.0777  136.8113  157.9815 N.am    1  UNL1       -0.2989
     20 C         143.0755  136.8372  159.4813 C.3     1  UNL1        0.1161
     21 C         142.9186  137.3234  160.8916 C.3     1  UNL1        0.1487
     22 N         142.6239  138.2171  162.0597 N.ar    1  UNL1       -0.2476
     23 C         142.2234  139.4217  162.8588 C.ar    1  UNL1        0.0968
     24 C         141.7606  140.8064  163.2026 C.ar    1  UNL1        0.0441
     25 C         142.0761  139.8801  164.3394 C.ar    1  UNL1        0.1218
     26 N         142.5137  138.5676  163.7601 N.ar    1  UNL1       -0.1676
     27 C         141.2855  142.2214  163.0536 C.ar    1  UNL1        0.0597
     28 C         141.2360  142.3880  164.5435 C.ar    1  UNL1        0.1237
     29 N         140.7696  143.7827  164.8387 N.ar    1  UNL1       -0.1621
     30 N         140.5308  144.4781  163.5314 N.ar    1  UNL1       -0.2106
     31 C         140.0348  145.9444  162.5389 C.ar    1  UNL1        0.1036
     32 C         139.9268  146.2476  161.0739 C.ar    1  UNL1        0.0399
     33 C         140.2752  145.1958  160.0627 C.ar    1  UNL1        0.0860
     34 N         140.5002  144.5419  161.3937 N.ar    1  UNL1       -0.2264
     35 C         140.8496  143.5132  162.4281 C.ar    1  UNL1        0.1653
     36 H         140.6908  143.8779  153.9667 H       1  UNL1        0.1739
     37 H         143.3867  135.8880  157.8357 H       1  UNL1        0.1498
     38 C         141.0953  146.7140  153.0942 C.3     1  UNL1        0.2543
     39 O         139.9687  146.0291  153.8094 O.3     1  UNL1       -0.4553
@<TRIPOS>BOND
     1    38    39    1
     2    39     1    1
     3     1     2   ar
     4     2     3   ar
     5     3     4   ar
     6     4     5   ar
     7     5     6   ar
     8     6     7    1
     9     7     8    1
    10     8     9    2
    11     8    10    2
    12     8    11    1
    13    11    12   ar
    14    12    13   ar
    15    13    14   ar
    16    14    15   ar
    17    15    16   ar
    18    15    17    1
    19    17    18    2
    20    17    19   am
    21    19    20    1
    22    20    21    1
    23    21    22    1
    24    22    23   ar
    25    23    24   ar
    26    24    25   ar
    27    25    26   ar
    28    24    27    1
    29    27    28   ar
    30    28    29   ar
    31    29    30   ar
    32    30    31   ar
    33    31    32   ar
    34    32    33   ar
    35    33    34   ar
    36    34    35   ar
    37     6     1   ar
    38    16    11   ar
    39    26    22   ar
    40    35    27   ar
    41    33     4    1
    42    35    30   ar
    43     7    36    1
    44    19    37    1
@<TRIPOS>MOLECULE
*****
 39 44 0 0 0
SMALL
GASTEIGER

@<TRIPOS>ATOM
      1 C         139.4379  145.7169  156.5211 C.ar    1  UNL1        0.2400
      2 N         138.8175  145.5775  155.1625 N.ar    1  UNL1       -0.2090
      3 C         138.8431  144.2530  154.4587 C.ar    1  UNL1        0.1036
      4 C         139.4064  142.8648  154.8269 C.ar    1  UNL1        0.0384
      5 C         139.6388  143.8934  155.8936 C.ar    1  UNL1        0.0236
      6 C         140.0839  144.5320  157.1758 C.ar    1  UNL1        0.1179
      7 N         140.6933  144.7113  158.5346 N.pl3   1  UNL1       -0.2104
      8 S         141.4012  144.4120  159.8228 S.O2    1  UNL1        0.0737
      9 O         140.9476  145.8365  159.7014 O.2     1  UNL1       -0.1499
     10 O         141.7446  145.2571  161.0134 O.2     1  UNL1       -0.1499
     11 C         142.2788  143.3653  161.0341 C.ar    1  UNL1        0.1253
     12 C         142.6744  144.1097  162.2747 C.ar    1  UNL1        0.0202
     13 C         143.4051  143.3988  163.3750 C.ar    1  UNL1        0.0015
     14 C         143.7402  141.9435  163.2346 C.ar    1  UNL1        0.0046
     15 C         143.3447  141.1991  161.9939 C.ar    1  UNL1        0.0547
     16 C         142.6139  141.9100  160.8937 C.ar    1  UNL1        0.0247
     17 C         143.6976  139.7449  161.8908 C.2     1  UNL1        0.2459
     18 O         144.3878  139.5641  163.2103 O.2     1  UNL1       -0.2701
     19 N         143.8234  138.3502  161.3534 N.am    1  UNL1       -0.2989
     20 C         143.7083  137.1660  160.4397 C.3     1  UNL1        0.1161
     21 C         143.3648  136.3209  159.2490 C.3     1  UNL1        0.1487
     22 N         142.8303  135.9062  157.9102 N.ar    1  UNL1       -0.2476
     23 C         142.1625  135.9671  156.5684 C.ar    1  UNL1        0.0968
     24 C         141.4339  136.4968  155.3691 C.ar    1  UNL1        0.0441
     25 C         141.8284  135.0497  155.3557 C.ar    1  UNL1        0.1218
     26 N         142.5363  134.7503  156.6439 N.ar    1  UNL1       -0.1676
     27 C         140.7234  137.4380  154.4421 C.ar    1  UNL1        0.0597
     28 C         140.5373  136.3436  153.4333 C.ar    1  UNL1        0.1237
     29 N         139.8070  136.9178  152.2557 N.ar    1  UNL1       -0.1621
     30 N         139.5416  138.3671  152.5366 N.ar    1  UNL1       -0.2106
     31 C         138.8623  140.0126  152.0761 C.ar    1  UNL1        0.1036
     32 C         138.8074  141.3601  152.7327 C.ar    1  UNL1        0.0399
     33 C         139.4118  141.5575  154.0913 C.ar    1  UNL1        0.0860
     34 N         139.6544  140.1133  153.7665 N.ar    1  UNL1       -0.2264
     35 C         140.1080  138.6887  153.8879 C.ar    1  UNL1        0.1653
     36 H         140.4972  145.6658  158.6755 H       1  UNL1        0.1739
     37 H         144.3035  137.9302  162.1033 H       1  UNL1        0.1498
     38 C         138.8629  148.2505  156.5278 C.3     1  UNL1        0.2543
     39 O         139.4123  147.0413  157.2248 O.3     1  UNL1       -0.4553
@<TRIPOS>BOND
     1    38    39    1
     2    39     1    1
     3     1     2   ar
     4     2     3   ar
     5     3     4   ar
     6     4     5   ar
     7     5     6   ar
     8     6     7    1
     9     7     8    1
    10     8     9    2
    11     8    10    2
    12     8    11    1
    13    11    12   ar
    14    12    13   ar
    15    13    14   ar
    16    14    15   ar
    17    15    16   ar
    18    15    17    1
    19    17    18    2
    20    17    19   am
    21    19    20    1
    22    20    21    1
    23    21    22    1
    24    22    23   ar
    25    23    24   ar
    26    24    25   ar
    27    25    26   ar
    28    24    27    1
    29    27    28   ar
    30    28    29   ar
    31    29    30   ar
    32    30    31   ar
    33    31    32   ar
    34    32    33   ar
    35    33    34   ar
    36    34    35   ar
    37     6     1   ar
    38    16    11   ar
    39    26    22   ar
    40    35    27   ar
    41    33     4    1
    42    35    30   ar
    43     7    36    1
    44    19    37    1
@<TRIPOS>MOLECULE
*****
 39 44 0 0 0
SMALL
GASTEIGER

@<TRIPOS>ATOM
      1 C         143.2688  136.6636  156.5295 C.ar    1  UNL1        0.2400
      2 N         143.3431  135.8156  157.7646 N.ar    1  UNL1       -0.2090
      3 C         142.9750  136.3977  159.0972 C.ar    1  UNL1        0.1036
      4 C         142.4919  137.7908  159.5513 C.ar    1  UNL1        0.0384
      5 C         142.7320  137.7068  158.0731 C.ar    1  UNL1        0.0236
      6 C         142.8265  138.0935  156.6269 C.ar    1  UNL1        0.1179
      7 N         142.7651  138.9091  155.3695 N.pl3   1  UNL1       -0.2104
      8 S         142.5546  140.0651  154.4371 S.O2    1  UNL1        0.0737
      9 O         143.0278  138.8173  153.7524 O.2     1  UNL1       -0.1499
     10 O         142.7242  140.2186  152.9547 O.2     1  UNL1       -0.1499
     11 C         142.1082  141.7763  153.9837 C.ar    1  UNL1        0.1253
     12 C         142.2407  142.0473  152.5144 C.ar    1  UNL1        0.0202
     13 C         141.9131  143.4060  151.9698 C.ar    1  UNL1        0.0015
     14 C         141.4529  144.4937  152.8946 C.ar    1  UNL1        0.0046
     15 C         141.3204  144.2227  154.3639 C.ar    1  UNL1        0.0547
     16 C         141.6480  142.8640  154.9085 C.ar    1  UNL1        0.0247
     17 C         140.8573  145.3358  155.2563 C.2     1  UNL1        0.2459
     18 O         140.6825  146.4173  154.2317 O.2     1  UNL1       -0.2701
     19 N         140.4518  146.0931  156.4860 N.am    1  UNL1       -0.2989
     20 C         140.1477  146.4122  157.9198 C.3     1  UNL1        0.1161
     21 C         139.9781  146.2587  159.4023 C.3     1  UNL1        0.1487
     22 N         139.9613  145.6493  160.7728 N.ar    1  UNL1       -0.2476
     23 C         140.0991  144.6498  161.8828 C.ar    1  UNL1        0.0968
     24 C         140.3766  143.3688  162.6120 C.ar    1  UNL1        0.0441
     25 C         139.9080  144.5397  163.4240 C.ar    1  UNL1        0.1218
     26 N         139.6974  145.6957  162.4916 N.ar    1  UNL1       -0.1676
     27 C         140.7638  141.9448  162.8815 C.ar    1  UNL1        0.0597
     28 C         140.4972  142.1235  164.3468 C.ar    1  UNL1        0.1237
     29 N         140.7873  140.8215  165.0328 N.ar    1  UNL1       -0.1621
     30 N         141.2331  139.8382  163.9916 N.ar    1  UNL1       -0.2106
     31 C         141.8079  138.1700  163.4739 C.ar    1  UNL1        0.1036
     32 C         142.1876  137.5357  162.1687 C.ar    1  UNL1        0.0399
     33 C         142.1322  138.3364  160.9015 C.ar    1  UNL1        0.0860
     34 N         141.6918  139.2845  161.9773 N.ar    1  UNL1       -0.2264
     35 C         141.2186  140.5324  162.6620 C.ar    1  UNL1        0.1653
     36 H         143.0626  138.2304  154.7214 H       1  UNL1        0.1739
     37 H         140.2495  146.9664  156.0791 H       1  UNL1        0.1498
     38 C         142.7926  134.9991  154.5923 C.3     1  UNL1        0.2543
     39 O         143.6369  136.0814  155.1969 O.3     1  UNL1       -0.4553
@<TRIPOS>BOND
     1    38    39    1
     2    39     1    1
     3     1     2   ar
     4     2     3   ar
     5     3     4   ar
     6     4     5   ar
     7     5     6   ar
     8     6     7    1
     9     7     8    1
    10     8     9    2
    11     8    10    2
    12     8    11    1
    13    11    12   ar
    14    12    13   ar
    15    13    14   ar
    16    14    15   ar
    17    15    16   ar
    18    15    17    1
    19    17    18    2
    20    17    19   am
    21    19    20    1
    22    20    21    1
    23    21    22    1
    24    22    23   ar
    25    23    24   ar
    26    24    25   ar
    27    25    26   ar
    28    24    27    1
    29    27    28   ar
    30    28    29   ar
    31    29    30   ar
    32    30    31   ar
    33    31    32   ar
    34    32    33   ar
    35    33    34   ar
    36    34    35   ar
    37     6     1   ar
    38    16    11   ar
    39    26    22   ar
    40    35    27   ar
    41    33     4    1
    42    35    30   ar
    43     7    36    1
    44    19    37    1
@<TRIPOS>MOLECULE
*****
 39 44 0 0 0
SMALL
GASTEIGER

@<TRIPOS>ATOM
      1 C         142.7306  139.7183  162.2387 C.ar    1  UNL1        0.2400
      2 N         142.4587  141.0453  162.8830 N.ar    1  UNL1       -0.2090
      3 C         141.9626  142.1935  162.0548 C.ar    1  UNL1        0.1036
      4 C         141.6317  142.3584  160.5570 C.ar    1  UNL1        0.0384
      5 C         142.1060  140.9783  160.9040 C.ar    1  UNL1        0.0236
      6 C         142.5065  139.5393  160.7665 C.ar    1  UNL1        0.1179
      7 N         142.7898  138.1974  160.1591 N.pl3   1  UNL1       -0.2104
      8 S         142.9252  137.0979  159.1478 S.O2    1  UNL1        0.0737
      9 O         143.3086  136.6878  160.5387 O.2     1  UNL1       -0.1499
     10 O         143.3686  135.6689  159.2540 O.2     1  UNL1       -0.1499
     11 C         142.8355  136.3454  157.4868 C.ar    1  UNL1        0.1253
     12 C         143.2589  134.9065  157.4711 C.ar    1  UNL1        0.0202
     13 C         143.2454  134.1349  156.1849 C.ar    1  UNL1        0.0015
     14 C         142.8085  134.8021  154.9145 C.ar    1  UNL1        0.0046
     15 C         142.3852  136.2409  154.9302 C.ar    1  UNL1        0.0547
     16 C         142.3986  137.0126  156.2164 C.ar    1  UNL1        0.0247
     17 C         141.9550  136.8727  153.6396 C.2     1  UNL1        0.2459
     18 O         142.1294  135.7002  152.7205 O.2     1  UNL1       -0.2701
     19 N         141.4674  137.8905  152.6515 N.am    1  UNL1       -0.2989
     20 C         140.9752  139.1840  152.0730 C.3     1  UNL1        0.1161
     21 C         140.5318  140.6131  151.9668 C.3     1  UNL1        0.1487
     22 N         140.1852  142.0228  152.3444 N.ar    1  UNL1       -0.2476
     23 C         139.9729  143.2603  153.1650 C.ar    1  UNL1        0.0968
     24 C         139.9180  144.1918  154.3394 C.ar    1  UNL1        0.0441
     25 C         139.5052  144.7366  153.0042 C.ar    1  UNL1        0.1218
     26 N         139.6407  143.6371  151.9929 N.ar    1  UNL1       -0.1676
     27 C         140.0265  144.7160  155.7407 C.ar    1  UNL1        0.0597
     28 C         139.5435  146.0659  155.2995 C.ar    1  UNL1        0.1237
     29 N         139.5049  146.9605  156.5030 N.ar    1  UNL1       -0.1621
     30 N         139.9641  146.1635  157.6878 N.ar    1  UNL1       -0.2106
     31 C         140.3521  145.9907  159.4768 C.ar    1  UNL1        0.1036
     32 C         140.8467  144.8784  160.3533 C.ar    1  UNL1        0.0399
     33 C         141.1351  143.5300  159.7628 C.ar    1  UNL1        0.0860
     34 N         140.6698  144.3663  158.6077 N.ar    1  UNL1       -0.2264
     35 C         140.2865  144.7764  157.2167 C.ar    1  UNL1        0.1653
     36 H         143.0846  137.7140  160.9645 H       1  UNL1        0.1739
     37 H         141.4766  137.3408  151.8348 H       1  UNL1        0.1498
     38 C         143.3369  138.7122  164.5561 C.3     1  UNL1        0.2543
     39 O         143.2267  138.5702  163.0669 O.3     1  UNL1       -0.4553
@<TRIPOS>BOND
     1    38    39    1
     2    39     1    1
     3     1     2   ar
     4     2     3   ar
     5     3     4   ar
     6     4     5   ar
     7     5     6   ar
     8     6     7    1
     9     7     8    1
    10     8     9    2
    11     8    10    2
    12     8    11    1
    13    11    12   ar
    14    12    13   ar
    15    13    14   ar
    16    14    15   ar
    17    15    16   ar
    18    15    17    1
    19    17    18    2
    20    17    19   am
    21    19    20    1
    22    20    21    1
    23    21    22    1
    24    22    23   ar
    25    23    24   ar
    26    24    25   ar
    27    25    26   ar
    28    24    27    1
    29    27    28   ar
    30    28    29   ar
    31    29    30   ar
    32    30    31   ar
    33    31    32   ar
    34    32    33   ar
    35    33    34   ar
    36    34    35   ar
    37     6     1   ar
    38    16    11   ar
    39    26    22   ar
    40    35    27   ar
    41    33     4    1
    42    35    30   ar
    43     7    36    1
    44    19    37    1
@<TRIPOS>MOLECULE
*****
 39 44 0 0 0
SMALL
GASTEIGER

@<TRIPOS>ATOM
      1 C         143.8345  140.2340  161.9687 C.ar    1  UNL1        0.2400
      2 N         144.3285  138.8431  162.2360 N.ar    1  UNL1       -0.2090
      3 C         144.0774  137.7531  161.2365 C.ar    1  UNL1        0.1036
      4 C         143.3661  137.7094  159.8681 C.ar    1  UNL1        0.0384
      5 C         143.3504  139.0726  160.4936 C.ar    1  UNL1        0.0236
      6 C         143.0895  140.5350  160.7021 C.ar    1  UNL1        0.1179
      7 N         142.6116  141.9379  160.4711 N.pl3   1  UNL1       -0.2104
      8 S         141.9685  143.1294  159.8255 S.O2    1  UNL1        0.0737
      9 O         142.5944  143.4291  161.1552 O.2     1  UNL1       -0.1499
     10 O         141.8283  144.5617  160.2483 O.2     1  UNL1       -0.1499
     11 C         141.0540  144.0241  158.5231 C.ar    1  UNL1        0.1253
     12 C         140.8527  145.4763  158.8398 C.ar    1  UNL1        0.0202
     13 C         140.1192  146.3597  157.8747 C.ar    1  UNL1        0.0015
     14 C         139.5868  145.7909  156.5930 C.ar    1  UNL1        0.0046
     15 C         139.7881  144.3386  156.2762 C.ar    1  UNL1        0.0547
     16 C         140.5217  143.4552  157.2413 C.ar    1  UNL1        0.0247
     17 C         139.2411  143.8071  154.9846 C.2     1  UNL1        0.2459
     18 O         138.6333  145.0647  154.4377 O.2     1  UNL1       -0.2701
     19 N         138.8941  142.8616  153.8730 N.am    1  UNL1       -0.2989
     20 C         138.7848  141.6046  153.0619 C.3     1  UNL1        0.1161
     21 C         138.9251  140.1722  152.6391 C.3     1  UNL1        0.1487
     22 N         139.2996  138.7197  152.6505 N.ar    1  UNL1       -0.2476
     23 C         139.8678  137.4046  153.0949 C.ar    1  UNL1        0.0968
     24 C         140.5682  136.3693  153.9240 C.ar    1  UNL1        0.0441
     25 C         139.9877  135.9291  152.6129 C.ar    1  UNL1        0.1218
     26 N         139.3446  137.1206  151.9673 N.ar    1  UNL1       -0.1676
     27 C         141.3249  135.7259  155.0482 C.ar    1  UNL1        0.0597
     28 C         141.2904  134.4008  154.3462 C.ar    1  UNL1        0.1237
     29 N         142.0000  133.4003  155.2095 N.ar    1  UNL1       -0.1621
     30 N         142.4730  134.1070  156.4451 N.ar    1  UNL1       -0.2106
     31 C         143.3258  134.1348  158.0739 C.ar    1  UNL1        0.1036
     32 C         143.6053  135.1848  159.1080 C.ar    1  UNL1        0.0399
     33 C         143.1348  136.5929  158.8935 C.ar    1  UNL1        0.0860
     34 N         142.6817  135.8441  157.6752 N.ar    1  UNL1       -0.2264
     35 C         142.0557  135.5443  156.3454 C.ar    1  UNL1        0.1653
     36 H         142.9409  142.3595  161.2975 H       1  UNL1        0.1739
     37 H         138.4203  143.4828  153.2739 H       1  UNL1        0.1498
     38 C         145.4914  141.7301  163.2977 C.3     1  UNL1        0.2543
     39 O         144.0856  141.3240  162.9682 O.3     1  UNL1       -0.4553
@<TRIPOS>BOND
     1    38    39    1
     2    39     1    1
     3     1     2   ar
     4     2     3   ar
     5     3     4   ar
     6     4     5   ar
     7     5     6   ar
     8     6     7    1
     9     7     8    1
    10     8     9    2
    11     8    10    2
    12     8    11    1
    13    11    12   ar
    14    12    13   ar
    15    13    14   ar
    16    14    15   ar
    17    15    16   ar
    18    15    17    1
    19    17    18    2
    20    17    19   am
    21    19    20    1
    22    20    21    1
    23    21    22    1
    24    22    23   ar
    25    23    24   ar
    26    24    25   ar
    27    25    26   ar
    28    24    27    1
    29    27    28   ar
    30    28    29   ar
    31    29    30   ar
    32    30    31   ar
    33    31    32   ar
    34    32    33   ar
    35    33    34   ar
    36    34    35   ar
    37     6     1   ar
    38    16    11   ar
    39    26    22   ar
    40    35    27   ar
    41    33     4    1
    42    35    30   ar
    43     7    36    1
    44    19    37    1
@<TRIPOS>MOLECULE
*****
 39 44 0 0 0
SMALL
GASTEIGER

@<TRIPOS>ATOM
      1 C         137.8213  143.6818  153.8277 C.ar    1  UNL1        0.2400
      2 N         137.7901  144.9692  154.5970 N.ar    1  UNL1       -0.2090
      3 C         138.4819  145.0666  155.9245 C.ar    1  UNL1        0.1036
      4 C         139.2966  144.0691  156.7738 C.ar    1  UNL1        0.0384
      5 C         138.8015  143.4763  155.4879 C.ar    1  UNL1        0.0236
      6 C         138.5443  142.4920  154.3857 C.ar    1  UNL1        0.1179
      7 N         138.5530  141.2225  153.5867 N.pl3   1  UNL1       -0.2104
      8 S         138.8266  139.8056  153.1774 S.O2    1  UNL1        0.0737
      9 O         138.0114  140.5742  152.1801 O.2     1  UNL1       -0.1499
     10 O         138.4453  139.0062  151.9669 O.2     1  UNL1       -0.1499
     11 C         139.5166  138.1253  153.3601 C.ar    1  UNL1        0.1253
     12 C         139.1962  137.2303  152.1998 C.ar    1  UNL1        0.0202
     13 C         139.6873  135.8131  152.1879 C.ar    1  UNL1        0.0015
     14 C         140.4987  135.2908  153.3362 C.ar    1  UNL1        0.0046
     15 C         140.8191  136.1858  154.4965 C.ar    1  UNL1        0.0547
     16 C         140.3280  137.6030  154.5085 C.ar    1  UNL1        0.0247
     17 C         141.6330  135.6269  155.6258 C.2     1  UNL1        0.2459
     18 O         141.8421  134.2328  155.1132 O.2     1  UNL1       -0.2701
     19 N         142.3780  135.5269  156.9238 N.am    1  UNL1       -0.2989
     20 C         142.9735  135.8967  158.2500 C.3     1  UNL1        0.1161
     21 C         143.3548  136.6962  159.4606 C.3     1  UNL1        0.1487
     22 N         143.4808  137.8387  160.4244 N.ar    1  UNL1       -0.2476
     23 C         143.3377  139.2004  161.0368 C.ar    1  UNL1        0.0968
     24 C         142.9410  140.6338  161.2318 C.ar    1  UNL1        0.0441
     25 C         143.7581  139.9889  162.3118 C.ar    1  UNL1        0.1218
     26 N         144.0317  138.5720  161.9025 N.ar    1  UNL1       -0.1676
     27 C         142.3337  141.9836  160.9879 C.ar    1  UNL1        0.0597
     28 C         142.8708  142.4887  162.2942 C.ar    1  UNL1        0.1237
     29 N         142.4507  143.9207  162.4454 N.ar    1  UNL1       -0.1621
     30 N         141.6540  144.3006  161.2327 N.ar    1  UNL1       -0.2106
     31 C         140.6864  145.5069  160.2378 C.ar    1  UNL1        0.1036
     32 C         139.9777  145.4668  158.9164 C.ar    1  UNL1        0.0399
     33 C         139.9762  144.2059  158.1040 C.ar    1  UNL1        0.0860
     34 N         140.7664  143.8720  159.3345 N.ar    1  UNL1       -0.2264
     35 C         141.5817  143.1034  160.3319 C.ar    1  UNL1        0.1653
     36 H         138.0248  141.5165  152.8097 H       1  UNL1        0.1739
     37 H         142.6762  134.5903  156.8678 H       1  UNL1        0.1498
     38 C         135.6842  143.1886  152.4350 C.3     1  UNL1        0.2543
     39 O         137.1295  143.5845  152.5003 O.3     1  UNL1       -0.4553
@<TRIPOS>BOND
     1    38    39    1
     2    39     1    1
     3     1     2   ar
     4     2     3   ar
     5     3     4   ar
     6     4     5   ar
     7     5     6   ar
     8     6     7    1
     9     7     8    1
    10     8     9    2
    11     8    10    2
    12     8    11    1
    13    11    12   ar
    14    12    13   ar
    15    13    14   ar
    16    14    15   ar
    17    15    16   ar
    18    15    17    1
    19    17    18    2
    20    17    19   am
    21    19    20    1
    22    20    21    1
    23    21    22    1
    24    22    23   ar
    25    23    24   ar
    26    24    25   ar
    27    25    26   ar
    28    24    27    1
    29    27    28   ar
    30    28    29   ar
    31    29    30   ar
    32    30    31   ar
    33    31    32   ar
    34    32    33   ar
    35    33    34   ar
    36    34    35   ar
    37     6     1   ar
    38    16    11   ar
    39    26    22   ar
    40    35    27   ar
    41    33     4    1
    42    35    30   ar
    43     7    36    1
    44    19    37    1
@<TRIPOS>MOLECULE
*****
 39 44 0 0 0
SMALL
GASTEIGER

@<TRIPOS>ATOM
      1 C         143.0531  143.3545  161.7867 C.ar    1  UNL1        0.2400
      2 N         143.7426  142.2672  162.5563 N.ar    1  UNL1       -0.2090
      3 C         143.8004  140.8753  162.0000 C.ar    1  UNL1        0.1036
      4 C         143.2724  140.2264  160.7037 C.ar    1  UNL1        0.0384
      5 C         142.9508  141.6883  160.8004 C.ar    1  UNL1        0.0236
      6 C         142.4213  143.0500  160.4608 C.ar    1  UNL1        0.1179
      7 N         141.7411  144.1639  159.7215 N.pl3   1  UNL1       -0.2104
      8 S         140.9841  144.9093  158.6626 S.O2    1  UNL1        0.0737
      9 O         141.3894  145.7631  159.8273 O.2     1  UNL1       -0.1499
     10 O         140.5526  146.3406  158.5395 O.2     1  UNL1       -0.1499
     11 C         140.0892  145.1039  157.0832 C.ar    1  UNL1        0.1253
     12 C         139.6070  146.5052  156.8511 C.ar    1  UNL1        0.0202
     13 C         138.8515  146.8407  155.5995 C.ar    1  UNL1        0.0015
     14 C         138.5782  145.7749  154.5800 C.ar    1  UNL1        0.0046
     15 C         139.0603  144.3736  154.8121 C.ar    1  UNL1        0.0547
     16 C         139.8158  144.0381  156.0638 C.ar    1  UNL1        0.0247
     17 C         138.7673  143.3358  153.7695 C.2     1  UNL1        0.2459
     18 O         138.0220  144.1826  152.7808 O.2     1  UNL1       -0.2701
     19 N         138.7197  142.0193  153.0522 N.am    1  UNL1       -0.2989
     20 C         138.9226  140.5666  152.7381 C.3     1  UNL1        0.1161
     21 C         139.3541  139.1353  152.8612 C.3     1  UNL1        0.1487
     22 N         139.9673  137.8804  153.4082 N.ar    1  UNL1       -0.2476
     23 C         140.6958  136.9379  154.3198 C.ar    1  UNL1        0.0968
     24 C         141.4607  136.4099  155.4971 C.ar    1  UNL1        0.0441
     25 C         141.1217  135.4426  154.4019 C.ar    1  UNL1        0.1218
     26 N         140.3647  136.1880  153.3431 N.ar    1  UNL1       -0.1676
     27 C         142.1792  136.3538  156.8127 C.ar    1  UNL1        0.0597
     28 C         142.4541  134.8908  156.6283 C.ar    1  UNL1        0.1237
     29 N         143.2181  134.4082  157.8256 N.ar    1  UNL1       -0.1621
     30 N         143.4153  135.5730  158.7499 N.ar    1  UNL1       -0.2106
     31 C         144.0539  136.3244  160.3019 C.ar    1  UNL1        0.1036
     32 C         144.0268  137.6970  160.9062 C.ar    1  UNL1        0.0399
     33 C         143.3511  138.8227  160.1809 C.ar    1  UNL1        0.0860
     34 N         143.1785  137.6292  159.2887 N.ar    1  UNL1       -0.2264
     35 C         142.7732  136.7754  158.1239 C.ar    1  UNL1        0.1653
     36 H         141.8944  144.8986  160.3586 H       1  UNL1        0.1739
     37 H         138.2202  142.2907  152.2484 H       1  UNL1        0.1498
     38 C         141.9271  145.1163  163.3289 C.3     1  UNL1        0.2543
     39 O         142.9954  144.7463  162.3431 O.3     1  UNL1       -0.4553
@<TRIPOS>BOND
     1    38    39    1
     2    39     1    1
     3     1     2   ar
     4     2     3   ar
     5     3     4   ar
     6     4     5   ar
     7     5     6   ar
     8     6     7    1
     9     7     8    1
    10     8     9    2
    11     8    10    2
    12     8    11    1
    13    11    12   ar
    14    12    13   ar
    15    13    14   ar
    16    14    15   ar
    17    15    16   ar
    18    15    17    1
    19    17    18    2
    20    17    19   am
    21    19    20    1
    22    20    21    1
    23    21    22    1
    24    22    23   ar
    25    23    24   ar
    26    24    25   ar
    27    25    26   ar
    28    24    27    1
    29    27    28   ar
    30    28    29   ar
    31    29    30   ar
    32    30    31   ar
    33    31    32   ar
    34    32    33   ar
    35    33    34   ar
    36    34    35   ar
    37     6     1   ar
    38    16    11   ar
    39    26    22   ar
    40    35    27   ar
    41    33     4    1
    42    35    30   ar
    43     7    36    1
    44    19    37    1
