@<TRIPOS>MOLECULE
*****
 26 29 0 0 0
SMALL
GASTEIGER

@<TRIPOS>ATOM
      1 C         138.8271  140.2133  166.0850 C.ar    1  UNL1        0.2446
      2 N         138.6601  141.1802  164.9505 N.ar    1  UNL1       -0.2102
      3 C         139.3426  142.5152  164.9961 C.ar    1  UNL1        0.0890
      4 C         140.1921  142.8832  166.1762 C.ar    1  UNL1        0.0401
      5 C         140.3592  141.9163  167.3108 C.ar    1  UNL1        0.1051
      6 N         141.2087  142.2844  168.4910 N.ar    1  UNL1       -0.2405
      7 C         141.3758  141.3175  169.6255 C.ar    1  UNL1        0.1195
      8 C         140.6932  139.9825  169.5798 C.ar    1  UNL1        0.1197
      9 N         139.8437  139.6145  168.3997 N.ar    1  UNL1       -0.2360
     10 C         139.6767  140.5814  167.2652 C.ar    1  UNL1        0.1519
     11 C         139.1755  143.4821  163.8615 C.ar    1  UNL1        0.0574
     12 C         137.9029  144.1752  163.4740 C.ar    1  UNL1        0.1231
     13 N         138.1925  145.0471  162.2882 N.ar    1  UNL1       -0.1675
     14 N         139.6441  144.8929  161.9430 N.ar    1  UNL1       -0.2473
     15 C         140.3621  145.5844  160.8223 C.3     1  UNL1        0.1538
     16 C         140.2516  143.9257  162.9154 C.ar    1  UNL1        0.0982
     17 O         138.1446  138.8784  166.0393 O.3     1  UNL1       -0.4577
     18 C         138.8371  137.7029  165.4160 C.3     1  UNL1        0.2243
     19 C         141.7892  138.1605  165.1406 C.3     1  UNL1        0.0898
     20 N         140.9285  138.0594  163.9163 N.3     1  UNL1       -0.2672
     21 C         141.5438  138.1871  162.5543 C.3     1  UNL1        0.0895
     22 C         140.6830  138.0860  161.3300 C.3     1  UNL1        0.0862
     23 N         139.2070  137.8572  161.4677 N.3     1  UNL1       -0.2951
     24 C         138.5917  137.7295  162.8297 C.3     1  UNL1        0.0886
     25 C         139.4524  137.8306  164.0540 C.3     1  UNL1        0.1176
     26 H         138.9947  136.9945  160.9666 H       1  UNL1        0.1233
@<TRIPOS>BOND
     1    19    20    1
     2    20    21    1
     3    21    22    1
     4    22    23    1
     5    23    24    1
     6    24    25    1
     7    25    18    1
     8    18    17    1
     9    17     1    1
    10     1     2   ar
    11     2     3   ar
    12     3    11    1
    13    11    12   ar
    14    12    13   ar
    15    13    14   ar
    16    14    15    1
    17    14    16   ar
    18     3     4   ar
    19     4     5   ar
    20     5     6   ar
    21     6     7   ar
    22     7     8   ar
    23     8     9   ar
    24     9    10   ar
    25    25    20    1
    26    10     1   ar
    27    16    11   ar
    28    10     5   ar
    29    23    26    1
@<TRIPOS>MOLECULE
*****
 26 29 0 0 0
SMALL
GASTEIGER

@<TRIPOS>ATOM
      1 C         142.4165  140.5868  166.6492 C.ar    1  UNL1        0.2446
      2 N         141.7254  141.4551  165.6402 N.ar    1  UNL1       -0.2102
      3 C         140.8292  142.5680  166.0968 C.ar    1  UNL1        0.0890
      4 C         140.6243  142.8125  167.5624 C.ar    1  UNL1        0.0401
      5 C         141.3155  141.9441  168.5715 C.ar    1  UNL1        0.1051
      6 N         141.1106  142.1887  170.0372 N.ar    1  UNL1       -0.2405
      7 C         141.8018  141.3203  171.0462 C.ar    1  UNL1        0.1195
      8 C         142.6979  140.2075  170.5896 C.ar    1  UNL1        0.1197
      9 N         142.9028  139.9629  169.1240 N.ar    1  UNL1       -0.2360
     10 C         142.2116  140.8313  168.1149 C.ar    1  UNL1        0.1519
     11 C         140.1380  143.4363  165.0877 C.ar    1  UNL1        0.0574
     12 C         138.6547  143.5846  164.9208 C.ar    1  UNL1        0.1231
     13 N         138.4087  144.5488  163.7982 N.ar    1  UNL1       -0.1675
     14 N         139.7400  144.9963  163.2715 N.ar    1  UNL1       -0.2473
     15 C         139.9633  145.9618  162.1455 C.3     1  UNL1        0.1538
     16 C         140.8087  144.3088  164.0684 C.ar    1  UNL1        0.0982
     17 O         143.3127  139.4739  166.1926 O.3     1  UNL1       -0.4577
     18 C         142.7971  138.4406  165.2354 C.3     1  UNL1        0.2243
     19 C         140.9421  137.1866  163.2387 C.3     1  UNL1        0.0898
     20 N         142.1470  137.9463  162.7689 N.3     1  UNL1       -0.2672
     21 C         142.4246  138.0791  161.3008 C.3     1  UNL1        0.0895
     22 C         143.6296  138.8389  160.8310 C.3     1  UNL1        0.0862
     23 N         144.5571  139.4659  161.8293 N.3     1  UNL1       -0.2951
     24 C         144.2796  139.3331  163.2975 C.3     1  UNL1        0.0886
     25 C         143.0746  138.5733  163.7672 C.3     1  UNL1        0.1176
     26 H         144.5801  140.4646  161.6232 H       1  UNL1        0.1233
@<TRIPOS>BOND
     1    19    20    1
     2    20    21    1
     3    21    22    1
     4    22    23    1
     5    23    24    1
     6    24    25    1
     7    25    18    1
     8    18    17    1
     9    17     1    1
    10     1     2   ar
    11     2     3   ar
    12     3    11    1
    13    11    12   ar
    14    12    13   ar
    15    13    14   ar
    16    14    15    1
    17    14    16   ar
    18     3     4   ar
    19     4     5   ar
    20     5     6   ar
    21     6     7   ar
    22     7     8   ar
    23     8     9   ar
    24     9    10   ar
    25    25    20    1
    26    10     1   ar
    27    16    11   ar
    28    10     5   ar
    29    23    26    1
@<TRIPOS>MOLECULE
*****
 26 29 0 0 0
SMALL
GASTEIGER

@<TRIPOS>ATOM
      1 C         141.8678  140.6263  166.4595 C.ar    1  UNL1        0.2446
      2 N         141.2060  140.1921  165.1854 N.ar    1  UNL1       -0.2102
      3 C         139.8129  139.6369  165.2152 C.ar    1  UNL1        0.0890
      4 C         139.0815  139.5158  166.5192 C.ar    1  UNL1        0.0401
      5 C         139.7433  139.9500  167.7934 C.ar    1  UNL1        0.1051
      6 N         139.0119  139.8290  169.0974 N.ar    1  UNL1       -0.2405
      7 C         139.6737  140.2631  170.3715 C.ar    1  UNL1        0.1195
      8 C         141.0668  140.8184  170.3417 C.ar    1  UNL1        0.1197
      9 N         141.7982  140.9395  169.0377 N.ar    1  UNL1       -0.2360
     10 C         141.1364  140.5053  167.7636 C.ar    1  UNL1        0.1519
     11 C         139.1511  139.2027  163.9409 C.ar    1  UNL1        0.0574
     12 C         138.9273  137.7859  163.5022 C.ar    1  UNL1        0.1231
     13 N         138.2348  137.8166  162.1718 N.ar    1  UNL1       -0.1675
     14 N         138.0308  139.2524  161.7885 N.ar    1  UNL1       -0.2473
     15 C         137.3756  139.7450  160.5324 C.3     1  UNL1        0.1538
     16 C         138.5971  140.1090  162.8819 C.ar    1  UNL1        0.0982
     17 O         143.2609  141.1816  166.4297 O.3     1  UNL1       -0.4577
     18 C         143.5362  142.4795  165.7300 C.3     1  UNL1        0.2243
     19 C         141.6897  143.4364  163.5678 C.3     1  UNL1        0.0898
     20 N         143.0679  142.9578  163.2196 N.3     1  UNL1       -0.2672
     21 C         143.5230  142.9576  161.7903 C.3     1  UNL1        0.0895
     22 C         144.9014  142.4789  161.4421 C.3     1  UNL1        0.0862
     23 N         145.8245  142.0005  162.5232 N.3     1  UNL1       -0.2951
     24 C         145.3695  142.0007  163.9525 C.3     1  UNL1        0.0886
     25 C         143.9912  142.4793  164.3007 C.3     1  UNL1        0.1176
     26 H         146.6580  142.5869  162.4795 H       1  UNL1        0.1233
@<TRIPOS>BOND
     1    19    20    1
     2    20    21    1
     3    21    22    1
     4    22    23    1
     5    23    24    1
     6    24    25    1
     7    25    18    1
     8    18    17    1
     9    17     1    1
    10     1     2   ar
    11     2     3   ar
    12     3    11    1
    13    11    12   ar
    14    12    13   ar
    15    13    14   ar
    16    14    15    1
    17    14    16   ar
    18     3     4   ar
    19     4     5   ar
    20     5     6   ar
    21     6     7   ar
    22     7     8   ar
    23     8     9   ar
    24     9    10   ar
    25    25    20    1
    26    10     1   ar
    27    16    11   ar
    28    10     5   ar
    29    23    26    1
@<TRIPOS>MOLECULE
*****
 26 29 0 0 0
SMALL
GASTEIGER

@<TRIPOS>ATOM
      1 C         141.2312  140.6899  166.4494 C.ar    1  UNL1        0.2446
      2 N         141.7752  141.2111  165.1524 N.ar    1  UNL1       -0.2102
      3 C         142.9048  142.1979  165.1554 C.ar    1  UNL1        0.0890
      4 C         143.4905  142.6636  166.4554 C.ar    1  UNL1        0.0401
      5 C         142.9465  142.1424  167.7525 C.ar    1  UNL1        0.1051
      6 N         143.5322  142.6080  169.0525 N.ar    1  UNL1       -0.2405
      7 C         142.9882  142.0868  170.3496 C.ar    1  UNL1        0.1195
      8 C         141.8585  141.1000  170.3466 C.ar    1  UNL1        0.1197
      9 N         141.2729  140.6343  169.0466 N.ar    1  UNL1       -0.2360
     10 C         141.8168  141.1555  167.7495 C.ar    1  UNL1        0.1519
     11 C         143.4488  142.7191  163.8582 C.ar    1  UNL1        0.0574
     12 C         143.9152  144.1207  163.5975 C.ar    1  UNL1        0.1231
     13 N         144.3766  144.1981  162.1722 N.ar    1  UNL1       -0.1675
     14 N         144.1952  142.8443  161.5522 N.ar    1  UNL1       -0.2473
     15 C         144.5287  142.4703  160.1385 C.3     1  UNL1        0.1538
     16 C         143.6218  141.9303  162.5942 C.ar    1  UNL1        0.0982
     17 O         140.1015  139.7030  166.4464 O.3     1  UNL1       -0.4577
     18 C         138.8250  140.0265  165.7283 C.3     1  UNL1        0.2243
     19 C         137.6470  141.7673  163.5878 C.3     1  UNL1        0.0898
     20 N         137.9820  140.3358  163.2903 N.3     1  UNL1       -0.2672
     21 C         137.7279  139.7747  161.9226 C.3     1  UNL1        0.0895
     22 C         138.0629  138.3431  161.6252 C.3     1  UNL1        0.0862
     23 N         138.6518  137.4727  162.6955 N.3     1  UNL1       -0.2951
     24 C         138.9059  138.0338  164.0632 C.3     1  UNL1        0.0886
     25 C         138.5710  139.4653  164.3606 C.3     1  UNL1        0.1176
     26 H         139.5488  137.1387  162.3429 H       1  UNL1        0.1233
@<TRIPOS>BOND
     1    19    20    1
     2    20    21    1
     3    21    22    1
     4    22    23    1
     5    23    24    1
     6    24    25    1
     7    25    18    1
     8    18    17    1
     9    17     1    1
    10     1     2   ar
    11     2     3   ar
    12     3    11    1
    13    11    12   ar
    14    12    13   ar
    15    13    14   ar
    16    14    15    1
    17    14    16   ar
    18     3     4   ar
    19     4     5   ar
    20     5     6   ar
    21     6     7   ar
    22     7     8   ar
    23     8     9   ar
    24     9    10   ar
    25    25    20    1
    26    10     1   ar
    27    16    11   ar
    28    10     5   ar
    29    23    26    1
@<TRIPOS>MOLECULE
*****
 26 29 0 0 0
SMALL
GASTEIGER

@<TRIPOS>ATOM
      1 C         139.1125  143.5409  164.1101 C.ar    1  UNL1        0.2446
      2 N         139.8343  143.6827  165.4173 N.ar    1  UNL1       -0.2102
      3 C         140.1900  142.4625  166.2139 C.ar    1  UNL1        0.0890
      4 C         139.8240  141.1005  165.7032 C.ar    1  UNL1        0.0401
      5 C         139.1022  140.9586  164.3959 C.ar    1  UNL1        0.1051
      6 N         138.7362  139.5966  163.8852 N.ar    1  UNL1       -0.2405
      7 C         138.0145  139.4547  162.5780 C.ar    1  UNL1        0.1195
      8 C         137.6587  140.6750  161.7814 C.ar    1  UNL1        0.1197
      9 N         138.0247  142.0370  162.2921 N.ar    1  UNL1       -0.2360
     10 C         138.7465  142.1788  163.5993 C.ar    1  UNL1        0.1519
     11 C         140.9118  142.6044  167.5212 C.ar    1  UNL1        0.0574
     12 C         140.3335  143.1508  168.7927 C.ar    1  UNL1        0.1231
     13 N         141.4029  143.1089  169.8439 N.ar    1  UNL1       -0.1675
     14 N         142.6421  142.5366  169.2218 N.ar    1  UNL1       -0.2473
     15 C         143.9543  142.3150  169.9137 C.3     1  UNL1        0.1538
     16 C         142.3385  142.2248  167.7863 C.ar    1  UNL1        0.0982
     17 O         138.7568  144.7611  163.3135 O.3     1  UNL1       -0.4577
     18 C         139.8308  145.5381  162.6117 C.3     1  UNL1        0.2243
     19 C         140.5936  143.6579  160.4019 C.3     1  UNL1        0.0898
     20 N         141.6074  144.0520  161.4346 N.3     1  UNL1       -0.2672
     21 C         143.0027  143.5060  161.3626 C.3     1  UNL1        0.0895
     22 C         144.0166  143.9002  162.3954 C.3     1  UNL1        0.0862
     23 N         143.6352  144.8402  163.5003 N.3     1  UNL1       -0.2951
     24 C         142.2400  145.3862  163.5724 C.3     1  UNL1        0.0886
     25 C         141.2261  144.9921  162.5396 C.3     1  UNL1        0.1176
     26 H         144.2621  145.6421  163.4342 H       1  UNL1        0.1233
@<TRIPOS>BOND
     1    19    20    1
     2    20    21    1
     3    21    22    1
     4    22    23    1
     5    23    24    1
     6    24    25    1
     7    25    18    1
     8    18    17    1
     9    17     1    1
    10     1     2   ar
    11     2     3   ar
    12     3    11    1
    13    11    12   ar
    14    12    13   ar
    15    13    14   ar
    16    14    15    1
    17    14    16   ar
    18     3     4   ar
    19     4     5   ar
    20     5     6   ar
    21     6     7   ar
    22     7     8   ar
    23     8     9   ar
    24     9    10   ar
    25    25    20    1
    26    10     1   ar
    27    16    11   ar
    28    10     5   ar
    29    23    26    1
@<TRIPOS>MOLECULE
*****
 26 29 0 0 0
SMALL
GASTEIGER

@<TRIPOS>ATOM
      1 C         138.5144  139.9994  164.1717 C.ar    1  UNL1        0.2446
      2 N         139.0226  139.6170  165.5302 N.ar    1  UNL1       -0.2102
      3 C         139.5778  140.6671  166.4462 C.ar    1  UNL1        0.0890
      4 C         139.6248  142.0995  166.0038 C.ar    1  UNL1        0.0401
      5 C         139.1165  142.4820  164.6453 C.ar    1  UNL1        0.1051
      6 N         139.1635  143.9145  164.2029 N.ar    1  UNL1       -0.2405
      7 C         138.6553  144.2969  162.8445 C.ar    1  UNL1        0.1195
      8 C         138.1001  143.2469  161.9284 C.ar    1  UNL1        0.1197
      9 N         138.0531  141.8144  162.3708 N.ar    1  UNL1       -0.2360
     10 C         138.5613  141.4320  163.7293 C.ar    1  UNL1        0.1519
     11 C         140.0860  140.2846  167.8047 C.ar    1  UNL1        0.0574
     12 C         139.2576  140.1367  169.0464 C.ar    1  UNL1        0.1231
     13 N         140.1715  139.7435  170.1692 N.ar    1  UNL1       -0.1675
     14 N         141.5646  139.6485  169.6212 N.ar    1  UNL1       -0.2473
     15 C         142.7946  139.2832  170.3981 C.3     1  UNL1        0.1538
     16 C         141.5118  139.9829  168.1599 C.ar    1  UNL1        0.0982
     17 O         137.9592  138.9494  163.2557 O.3     1  UNL1       -0.4577
     18 C         138.7866  137.7494  162.9016 C.3     1  UNL1        0.2243
     19 C         141.3806  137.2430  164.3209 C.3     1  UNL1        0.0898
     20 N         141.3834  137.6698  162.8830 N.3     1  UNL1       -0.2672
     21 C         142.6832  137.8434  162.1547 C.3     1  UNL1        0.0895
     22 C         142.6859  138.2702  160.7166 C.3     1  UNL1        0.0862
     23 N         141.3889  138.5234  160.0070 N.3     1  UNL1       -0.2951
     24 C         140.0891  138.3498  160.7353 C.3     1  UNL1        0.0886
     25 C         140.0864  137.9230  162.1733 C.3     1  UNL1        0.1176
     26 H         141.3638  137.8930  159.2055 H       1  UNL1        0.1233
@<TRIPOS>BOND
     1    19    20    1
     2    20    21    1
     3    21    22    1
     4    22    23    1
     5    23    24    1
     6    24    25    1
     7    25    18    1
     8    18    17    1
     9    17     1    1
    10     1     2   ar
    11     2     3   ar
    12     3    11    1
    13    11    12   ar
    14    12    13   ar
    15    13    14   ar
    16    14    15    1
    17    14    16   ar
    18     3     4   ar
    19     4     5   ar
    20     5     6   ar
    21     6     7   ar
    22     7     8   ar
    23     8     9   ar
    24     9    10   ar
    25    25    20    1
    26    10     1   ar
    27    16    11   ar
    28    10     5   ar
    29    23    26    1
@<TRIPOS>MOLECULE
*****
 26 29 0 0 0
SMALL
GASTEIGER

@<TRIPOS>ATOM
      1 C         141.2547  143.8307  164.1004 C.ar    1  UNL1        0.2446
      2 N         140.6164  143.4977  165.4163 N.ar    1  UNL1       -0.2102
      3 C         141.3158  142.5850  166.3796 C.ar    1  UNL1        0.0890
      4 C         142.6535  142.0053  166.0269 C.ar    1  UNL1        0.0401
      5 C         143.2919  142.3383  164.7110 C.ar    1  UNL1        0.1051
      6 N         144.6296  141.7586  164.3584 N.ar    1  UNL1       -0.2405
      7 C         145.2680  142.0916  163.0425 C.ar    1  UNL1        0.1195
      8 C         144.5686  143.0043  162.0792 C.ar    1  UNL1        0.1197
      9 N         143.2308  143.5840  162.4319 N.ar    1  UNL1       -0.2360
     10 C         142.5925  143.2510  163.7478 C.ar    1  UNL1        0.1519
     11 C         140.6774  142.2520  167.6955 C.ar    1  UNL1        0.0574
     12 C         140.6730  143.1209  168.9182 C.ar    1  UNL1        0.1231
     13 N         139.9242  142.3976  169.9982 N.ar    1  UNL1       -0.1675
     14 N         139.4658  141.0817  169.4428 N.ar    1  UNL1       -0.2473
     15 C         138.6800  140.0389  170.1810 C.3     1  UNL1        0.1538
     16 C         139.9313  140.9917  168.0197 C.ar    1  UNL1        0.0982
     17 O         140.5553  144.7434  163.1372 O.3     1  UNL1       -0.4577
     18 C         139.0906  144.5673  162.8659 C.3     1  UNL1        0.2243
     19 C         140.0458  143.2418  160.3498 C.3     1  UNL1        0.0898
     20 N         139.0339  142.5576  161.2203 N.3     1  UNL1       -0.2672
     21 C         138.4995  141.2107  160.8328 C.3     1  UNL1        0.0895
     22 C         137.4875  140.5265  161.7033 C.3     1  UNL1        0.0862
     23 N         137.0099  141.1892  162.9614 N.3     1  UNL1       -0.2951
     24 C         137.5443  142.5362  163.3489 C.3     1  UNL1        0.0886
     25 C         138.5562  143.2204  162.4784 C.3     1  UNL1        0.1176
     26 H         137.2271  140.5542  163.7294 H       1  UNL1        0.1233
@<TRIPOS>BOND
     1    19    20    1
     2    20    21    1
     3    21    22    1
     4    22    23    1
     5    23    24    1
     6    24    25    1
     7    25    18    1
     8    18    17    1
     9    17     1    1
    10     1     2   ar
    11     2     3   ar
    12     3    11    1
    13    11    12   ar
    14    12    13   ar
    15    13    14   ar
    16    14    15    1
    17    14    16   ar
    18     3     4   ar
    19     4     5   ar
    20     5     6   ar
    21     6     7   ar
    22     7     8   ar
    23     8     9   ar
    24     9    10   ar
    25    25    20    1
    26    10     1   ar
    27    16    11   ar
    28    10     5   ar
    29    23    26    1
@<TRIPOS>MOLECULE
*****
 26 29 0 0 0
SMALL
GASTEIGER

@<TRIPOS>ATOM
      1 C         141.6725  138.9660  164.2498 C.ar    1  UNL1        0.2446
      2 N         141.5663  139.6376  165.5868 N.ar    1  UNL1       -0.2102
      3 C         140.2624  140.2369  166.0236 C.ar    1  UNL1        0.0890
      4 C         139.0648  140.1646  165.1234 C.ar    1  UNL1        0.0401
      5 C         139.1709  139.4929  163.7863 C.ar    1  UNL1        0.1051
      6 N         137.9733  139.4206  162.8862 N.ar    1  UNL1       -0.2405
      7 C         138.0795  138.7490  161.5492 C.ar    1  UNL1        0.1195
      8 C         139.3834  138.1497  161.1124 C.ar    1  UNL1        0.1197
      9 N         140.5810  138.2220  162.0126 N.ar    1  UNL1       -0.2360
     10 C         140.4748  138.8936  163.3495 C.ar    1  UNL1        0.1519
     11 C         140.1562  140.9085  167.3607 C.ar    1  UNL1        0.0574
     12 C         139.6197  140.2903  168.6177 C.ar    1  UNL1        0.1231
     13 N         139.6998  141.3160  169.7094 N.ar    1  UNL1       -0.1675
     14 N         140.2859  142.5680  169.1270 N.ar    1  UNL1       -0.2473
     15 C         140.5444  143.8472  169.8663 C.3     1  UNL1        0.1538
     16 C         140.5679  142.3161  167.6755 C.ar    1  UNL1        0.0982
     17 O         142.9763  138.3667  163.8130 O.3     1  UNL1       -0.4577
     18 C         144.2398  139.1695  163.9076 C.3     1  UNL1        0.2243
     19 C         144.1504  139.4272  160.9200 C.3     1  UNL1        0.0898
     20 N         144.2723  140.6534  161.7752 N.3     1  UNL1       -0.2672
     21 C         144.3494  142.0085  161.1367 C.3     1  UNL1        0.0895
     22 C         144.4713  143.2348  161.9920 C.3     1  UNL1        0.0862
     23 N         144.5161  143.1059  163.4858 N.3     1  UNL1       -0.2951
     24 C         144.4389  141.7508  164.1243 C.3     1  UNL1        0.0886
     25 C         144.3170  140.5246  163.2691 C.3     1  UNL1        0.1176
     26 H         143.7339  143.6488  163.8517 H       1  UNL1        0.1233
@<TRIPOS>BOND
     1    19    20    1
     2    20    21    1
     3    21    22    1
     4    22    23    1
     5    23    24    1
     6    24    25    1
     7    25    18    1
     8    18    17    1
     9    17     1    1
    10     1     2   ar
    11     2     3   ar
    12     3    11    1
    13    11    12   ar
    14    12    13   ar
    15    13    14   ar
    16    14    15    1
    17    14    16   ar
    18     3     4   ar
    19     4     5   ar
    20     5     6   ar
    21     6     7   ar
    22     7     8   ar
    23     8     9   ar
    24     9    10   ar
    25    25    20    1
    26    10     1   ar
    27    16    11   ar
    28    10     5   ar
    29    23    26    1
@<TRIPOS>MOLECULE
*****
 26 29 0 0 0
SMALL
GASTEIGER

@<TRIPOS>ATOM
      1 C         142.7177  143.9244  164.2174 C.ar    1  UNL1        0.2446
      2 N         142.9984  143.0141  165.3760 N.ar    1  UNL1       -0.2102
      3 C         141.8629  142.3912  166.1327 C.ar    1  UNL1        0.0890
      4 C         140.4466  142.6786  165.7307 C.ar    1  UNL1        0.0401
      5 C         140.1659  143.5889  164.5720 C.ar    1  UNL1        0.1051
      6 N         138.7496  143.8763  164.1701 N.ar    1  UNL1       -0.2405
      7 C         138.4689  144.7866  163.0114 C.ar    1  UNL1        0.1195
      8 C         139.6044  145.4095  162.2548 C.ar    1  UNL1        0.1197
      9 N         141.0207  145.1221  162.6567 N.ar    1  UNL1       -0.2360
     10 C         141.3014  144.2118  163.8153 C.ar    1  UNL1        0.1519
     11 C         142.1437  141.4808  167.2914 C.ar    1  UNL1        0.0574
     12 C         142.6808  140.0830  167.2043 C.ar    1  UNL1        0.1231
     13 N         142.8057  139.5467  168.5997 N.ar    1  UNL1       -0.1675
     14 N         142.3458  140.6132  169.5490 N.ar    1  UNL1       -0.2473
     15 C         142.3027  140.5036  171.0443 C.3     1  UNL1        0.1538
     16 C         141.9367  141.8085  168.7404 C.ar    1  UNL1        0.0982
     17 O         143.8532  144.5473  163.4607 O.3     1  UNL1       -0.4577
     18 C         144.4564  143.8307  162.2891 C.3     1  UNL1        0.2243
     19 C         142.4158  142.7266  160.3872 C.3     1  UNL1        0.0898
     20 N         143.2666  141.7948  161.1983 N.3     1  UNL1       -0.2672
     21 C         143.0971  140.3110  161.0584 C.3     1  UNL1        0.0895
     22 C         143.9480  139.3792  161.8696 C.3     1  UNL1        0.0862
     23 N         144.9683  139.9312  162.8205 N.3     1  UNL1       -0.2951
     24 C         145.1377  141.4151  162.9603 C.3     1  UNL1        0.0886
     25 C         144.2869  142.3468  162.1493 C.3     1  UNL1        0.1176
     26 H         145.8724  139.5576  162.5318 H       1  UNL1        0.1233
@<TRIPOS>BOND
     1    19    20    1
     2    20    21    1
     3    21    22    1
     4    22    23    1
     5    23    24    1
     6    24    25    1
     7    25    18    1
     8    18    17    1
     9    17     1    1
    10     1     2   ar
    11     2     3   ar
    12     3    11    1
    13    11    12   ar
    14    12    13   ar
    15    13    14   ar
    16    14    15    1
    17    14    16   ar
    18     3     4   ar
    19     4     5   ar
    20     5     6   ar
    21     6     7   ar
    22     7     8   ar
    23     8     9   ar
    24     9    10   ar
    25    25    20    1
    26    10     1   ar
    27    16    11   ar
    28    10     5   ar
    29    23    26    1
