@<TRIPOS>MOLECULE
*****
 34 38 0 0 0
SMALL
GASTEIGER

@<TRIPOS>ATOM
      1 N         139.9089  138.2832  161.9222 N.3     1  UNL1       -0.2695
      2 C         140.1708  137.9282  163.3558 C.3     1  UNL1        0.0939
      3 C         141.4820  138.2875  163.9899 C.3     1  UNL1        0.1107
      4 N         142.5311  139.0017  163.1904 N.am    1  UNL1       -0.2764
      5 C         143.8421  139.3609  163.8246 C.2     1  UNL1        0.2301
      6 O         144.8912  140.0751  163.0251 O.2     1  UNL1       -0.2745
      7 C         142.2691  139.3567  161.7567 C.3     1  UNL1        0.1107
      8 C         140.9581  138.9975  161.1227 C.3     1  UNL1        0.0939
      9 C         138.5979  137.9240  161.2880 C.3     1  UNL1        0.0770
     10 C         137.4648  138.9069  161.2998 C.3     1  UNL1        0.0467
     11 C         138.1548  141.2785  160.4941 C.ar    1  UNL1        0.1349
     12 C         138.4197  142.7250  160.7898 C.ar    1  UNL1        0.0428
     13 C         138.2595  143.2464  162.1871 C.ar    1  UNL1        0.0782
     14 C         137.8344  142.3213  163.2887 C.ar    1  UNL1        0.0274
     15 C         137.5695  140.8748  162.9929 C.ar    1  UNL1       -0.0017
     16 C         137.7297  140.3534  161.5956 C.ar    1  UNL1        0.0130
     17 C         137.7605  143.1159  164.5587 C.3     1  UNL1        0.2356
     18 O         138.1400  144.5322  164.2421 O.3     1  UNL1       -0.4404
     19 C         138.4484  144.6128  162.7763 C.2     1  UNL1        0.3414
     20 O         138.8714  145.8437  162.0308 O.2     1  UNL1       -0.2449
     21 C         139.3235  141.3774  158.1758 C.3     1  UNL1        0.2525
     22 O         138.3150  140.7571  159.0967 O.3     1  UNL1       -0.4717
     23 C         144.1040  139.0059  165.2582 C.3     1  UNL1        0.1116
     24 C         143.3589  139.7099  166.3533 C.ar    1  UNL1       -0.0130
     25 C         142.9750  138.9656  167.5978 C.ar    1  UNL1       -0.0022
     26 C         142.2298  139.6696  168.6929 C.ar    1  UNL1        0.0190
     27 C         141.8686  141.1177  168.5436 C.ar    1  UNL1        0.0862
     28 C         142.2526  141.8619  167.2991 C.ar    1  UNL1        0.0190
     29 C         142.9977  141.1580  166.2039 C.ar    1  UNL1       -0.0022
     30 N         141.1235  141.8217  169.6386 N.ar    1  UNL1       -0.1886
     31 C         141.1108  141.4333  171.0874 C.ar    1  UNL1        0.2258
     32 N         140.2397  142.4093  171.8213 N.ar    1  UNL1       -0.1045
     33 N         139.7140  143.4010  170.8261 N.ar    1  UNL1       -0.0222
     34 N         140.2603  143.0378  169.4772 N.ar    1  UNL1       -0.0385
@<TRIPOS>BOND
     1    21    22    1
     2    22    11    1
     3    11    12   ar
     4    12    13   ar
     5    13    14   ar
     6    14    15   ar
     7    15    16   ar
     8    16    10    1
     9    10     9    1
    10     9     1    1
    11     1     2    1
    12     2     3    1
    13     3     4    1
    14     4     5   am
    15     5     6    2
    16     5    23    1
    17    23    24    1
    18    24    25   ar
    19    25    26   ar
    20    26    27   ar
    21    27    30    1
    22    30    31   ar
    23    31    32   ar
    24    32    33   ar
    25    33    34   ar
    26    27    28   ar
    27    28    29   ar
    28     4     7    1
    29     7     8    1
    30    14    17    1
    31    17    18    1
    32    18    19    1
    33    19    20    2
    34    16    11   ar
    35     8     1    1
    36    19    13    1
    37    29    24   ar
    38    34    30   ar
@<TRIPOS>MOLECULE
*****
 34 38 0 0 0
SMALL
GASTEIGER

@<TRIPOS>ATOM
      1 N         138.7794  140.9517  160.2992 N.3     1  UNL1       -0.2695
      2 C         137.9443  140.8692  161.5425 C.3     1  UNL1        0.0939
      3 C         138.2465  139.8300  162.5812 C.3     1  UNL1        0.1107
      4 N         139.3836  138.8734  162.3766 N.am    1  UNL1       -0.2764
      5 C         139.6857  137.8343  163.4154 C.2     1  UNL1        0.2301
      6 O         140.8229  136.8777  163.2107 O.2     1  UNL1       -0.2745
      7 C         140.2187  138.9560  161.1332 C.3     1  UNL1        0.1107
      8 C         139.9165  139.9951  160.0946 C.3     1  UNL1        0.0939
      9 C         138.4773  141.9908  159.2605 C.3     1  UNL1        0.0770
     10 C         139.2412  143.2816  159.2465 C.3     1  UNL1        0.0467
     11 C         139.9966  144.2152  161.5504 C.ar    1  UNL1        0.1349
     12 C         141.0764  144.4586  162.5627 C.ar    1  UNL1        0.0428
     13 C         142.4808  144.0118  162.2834 C.ar    1  UNL1        0.0782
     14 C         142.8054  143.3215  160.9917 C.ar    1  UNL1        0.0274
     15 C         141.7256  143.0782  159.9794 C.ar    1  UNL1       -0.0017
     16 C         140.3211  143.5250  160.2589 C.ar    1  UNL1        0.0130
     17 C         144.2697  142.9965  160.9950 C.3     1  UNL1        0.2356
     18 O         144.8502  143.4859  162.2887 O.3     1  UNL1       -0.4404
     19 C         143.7446  144.1133  163.0849 C.2     1  UNL1        0.3414
     20 O         143.8792  144.7334  164.4441 O.2     1  UNL1       -0.2449
     21 C         137.9666  144.3798  163.1635 C.3     1  UNL1        0.2525
     22 O         138.5922  144.6620  161.8298 O.3     1  UNL1       -0.4717
     23 C         138.8507  137.7517  164.6587 C.3     1  UNL1        0.1116
     24 C         139.1661  138.6293  165.8335 C.ar    1  UNL1       -0.0130
     25 C         138.1871  138.7503  166.9635 C.ar    1  UNL1       -0.0022
     26 C         138.5025  139.6279  168.1385 C.ar    1  UNL1        0.0190
     27 C         139.7970  140.3845  168.1834 C.ar    1  UNL1        0.0862
     28 C         140.7760  140.2634  167.0533 C.ar    1  UNL1        0.0190
     29 C         140.4606  139.3859  165.8784 C.ar    1  UNL1       -0.0022
     30 N         140.1124  141.2620  169.3582 N.ar    1  UNL1       -0.1886
     31 C         140.6962  142.6424  169.2961 C.ar    1  UNL1        0.2258
     32 N         140.8440  143.1467  170.7010 N.ar    1  UNL1       -0.1045
     33 N         140.3517  142.0781  171.6315 N.ar    1  UNL1       -0.0222
     34 N         139.8995  140.9133  170.8015 N.ar    1  UNL1       -0.0385
@<TRIPOS>BOND
     1    21    22    1
     2    22    11    1
     3    11    12   ar
     4    12    13   ar
     5    13    14   ar
     6    14    15   ar
     7    15    16   ar
     8    16    10    1
     9    10     9    1
    10     9     1    1
    11     1     2    1
    12     2     3    1
    13     3     4    1
    14     4     5   am
    15     5     6    2
    16     5    23    1
    17    23    24    1
    18    24    25   ar
    19    25    26   ar
    20    26    27   ar
    21    27    30    1
    22    30    31   ar
    23    31    32   ar
    24    32    33   ar
    25    33    34   ar
    26    27    28   ar
    27    28    29   ar
    28     4     7    1
    29     7     8    1
    30    14    17    1
    31    17    18    1
    32    18    19    1
    33    19    20    2
    34    16    11   ar
    35     8     1    1
    36    19    13    1
    37    29    24   ar
    38    34    30   ar
@<TRIPOS>MOLECULE
*****
 34 38 0 0 0
SMALL
GASTEIGER

@<TRIPOS>ATOM
      1 N         140.0725  141.8052  160.6357 N.3     1  UNL1       -0.2695
      2 C         139.0802  141.7301  161.7581 C.3     1  UNL1        0.0939
      3 C         138.9950  140.4930  162.6022 C.3     1  UNL1        0.1107
      4 N         139.9019  139.3311  162.3239 N.am    1  UNL1       -0.2764
      5 C         139.8166  138.0941  163.1680 C.2     1  UNL1        0.2301
      6 O         140.7235  136.9322  162.8897 O.2     1  UNL1       -0.2745
      7 C         140.8942  139.4063  161.2015 C.3     1  UNL1        0.1107
      8 C         140.9795  140.6433  160.3574 C.3     1  UNL1        0.0939
      9 C         140.1578  143.0421  159.7916 C.3     1  UNL1        0.0770
     10 C         141.2204  144.0650  160.0651 C.3     1  UNL1        0.0467
     11 C         141.7896  144.7738  162.4990 C.ar    1  UNL1        0.1349
     12 C         142.6524  144.6508  163.7197 C.ar    1  UNL1        0.0428
     13 C         143.8092  143.6959  163.7274 C.ar    1  UNL1        0.0782
     14 C         144.1030  142.8639  162.5143 C.ar    1  UNL1        0.0274
     15 C         143.2401  142.9869  161.2936 C.ar    1  UNL1       -0.0017
     16 C         142.0833  143.9420  161.2860 C.ar    1  UNL1        0.0130
     17 C         145.3027  142.0149  162.8139 C.3     1  UNL1        0.2356
     18 O         145.7504  142.3222  164.2122 O.3     1  UNL1       -0.4404
     19 C         144.8273  143.3610  164.7768 C.2     1  UNL1        0.3414
     20 O         144.9083  143.9599  166.1497 O.2     1  UNL1       -0.2449
     21 C         139.2695  145.2589  162.9042 C.3     1  UNL1        0.2525
     22 O         140.6328  145.7288  162.4914 O.3     1  UNL1       -0.4717
     23 C         138.8243  138.0190  164.2904 C.3     1  UNL1        0.1116
     24 C         139.1217  138.6866  165.6002 C.ar    1  UNL1       -0.0130
     25 C         138.0558  138.7847  166.6511 C.ar    1  UNL1       -0.0022
     26 C         138.3532  139.4523  167.9610 C.ar    1  UNL1        0.0190
     27 C         139.7165  140.0219  168.2201 C.ar    1  UNL1        0.0862
     28 C         140.7823  139.9238  167.1692 C.ar    1  UNL1        0.0190
     29 C         140.4850  139.2562  165.8593 C.ar    1  UNL1       -0.0022
     30 N         140.0139  140.6896  169.5299 N.ar    1  UNL1       -0.1886
     31 C         139.8510  142.1497  169.8324 C.ar    1  UNL1        0.2258
     32 N         140.2629  142.3767  171.2567 N.ar    1  UNL1       -0.1045
     33 N         140.6804  141.0570  171.8346 N.ar    1  UNL1       -0.0222
     34 N         140.5265  140.0143  170.7673 N.ar    1  UNL1       -0.0385
@<TRIPOS>BOND
     1    21    22    1
     2    22    11    1
     3    11    12   ar
     4    12    13   ar
     5    13    14   ar
     6    14    15   ar
     7    15    16   ar
     8    16    10    1
     9    10     9    1
    10     9     1    1
    11     1     2    1
    12     2     3    1
    13     3     4    1
    14     4     5   am
    15     5     6    2
    16     5    23    1
    17    23    24    1
    18    24    25   ar
    19    25    26   ar
    20    26    27   ar
    21    27    30    1
    22    30    31   ar
    23    31    32   ar
    24    32    33   ar
    25    33    34   ar
    26    27    28   ar
    27    28    29   ar
    28     4     7    1
    29     7     8    1
    30    14    17    1
    31    17    18    1
    32    18    19    1
    33    19    20    2
    34    16    11   ar
    35     8     1    1
    36    19    13    1
    37    29    24   ar
    38    34    30   ar
@<TRIPOS>MOLECULE
*****
 34 38 0 0 0
SMALL
GASTEIGER

@<TRIPOS>ATOM
      1 N         138.6577  140.3391  159.9547 N.3     1  UNL1       -0.2695
      2 C         137.7785  140.3016  161.1695 C.3     1  UNL1        0.0939
      3 C         138.1384  139.4201  162.3286 C.3     1  UNL1        0.1107
      4 N         139.3773  138.5762  162.2730 N.am    1  UNL1       -0.2764
      5 C         139.7370  137.6948  163.4322 C.2     1  UNL1        0.2301
      6 O         140.9759  136.8510  163.3766 O.2     1  UNL1       -0.2745
      7 C         140.2564  138.6139  161.0581 C.3     1  UNL1        0.1107
      8 C         139.8966  139.4953  159.8990 C.3     1  UNL1        0.0939
      9 C         138.2979  141.2205  158.7955 C.3     1  UNL1        0.0770
     10 C         138.6788  142.6713  158.8099 C.3     1  UNL1        0.0467
     11 C         141.2082  143.0405  159.2745 C.ar    1  UNL1        0.1349
     12 C         142.3071  143.5185  160.1767 C.ar    1  UNL1        0.0428
     13 C         141.9754  144.1054  161.5167 C.ar    1  UNL1        0.0782
     14 C         140.5448  144.2142  161.9544 C.ar    1  UNL1        0.0274
     15 C         139.4459  143.7362  161.0522 C.ar    1  UNL1       -0.0017
     16 C         139.7777  143.1494  159.7122 C.ar    1  UNL1        0.0130
     17 C         140.5239  144.8325  163.3209 C.3     1  UNL1        0.2356
     18 O         141.9416  145.1058  163.7276 O.3     1  UNL1       -0.4404
     19 C         142.8387  144.6564  162.6126 C.2     1  UNL1        0.3414
     20 O         144.3361  144.7429  162.5963 O.2     1  UNL1       -0.2449
     21 C         141.9074  143.3533  156.7918 C.3     1  UNL1        0.2525
     22 O         141.5400  142.4537  157.9344 O.3     1  UNL1       -0.4717
     23 C         138.8578  137.6573  164.6470 C.3     1  UNL1        0.1116
     24 C         139.1592  138.5443  165.8184 C.ar    1  UNL1       -0.0130
     25 C         140.4704  139.2690  165.8927 C.ar    1  UNL1       -0.0022
     26 C         140.7718  140.1560  167.0642 C.ar    1  UNL1        0.0190
     27 C         139.7620  140.3184  168.1614 C.ar    1  UNL1        0.0862
     28 C         138.4508  139.5936  168.0871 C.ar    1  UNL1        0.0190
     29 C         138.1494  138.7066  166.9157 C.ar    1  UNL1       -0.0022
     30 N         140.0633  141.2054  169.3329 N.ar    1  UNL1       -0.1886
     31 C         140.3850  142.6691  169.2708 C.ar    1  UNL1        0.2258
     32 N         140.6163  143.1527  170.6717 N.ar    1  UNL1       -0.1045
     33 N         140.4377  141.9878  171.5997 N.ar    1  UNL1       -0.0222
     34 N         140.0959  140.7843  170.7722 N.ar    1  UNL1       -0.0385
@<TRIPOS>BOND
     1    21    22    1
     2    22    11    1
     3    11    12   ar
     4    12    13   ar
     5    13    14   ar
     6    14    15   ar
     7    15    16   ar
     8    16    10    1
     9    10     9    1
    10     9     1    1
    11     1     2    1
    12     2     3    1
    13     3     4    1
    14     4     5   am
    15     5     6    2
    16     5    23    1
    17    23    24    1
    18    24    25   ar
    19    25    26   ar
    20    26    27   ar
    21    27    30    1
    22    30    31   ar
    23    31    32   ar
    24    32    33   ar
    25    33    34   ar
    26    27    28   ar
    27    28    29   ar
    28     4     7    1
    29     7     8    1
    30    14    17    1
    31    17    18    1
    32    18    19    1
    33    19    20    2
    34    16    11   ar
    35     8     1    1
    36    19    13    1
    37    29    24   ar
    38    34    30   ar
@<TRIPOS>MOLECULE
*****
 34 38 0 0 0
SMALL
GASTEIGER

@<TRIPOS>ATOM
      1 N         138.4684  139.8141  160.7276 N.3     1  UNL1       -0.2695
      2 C         138.0269  140.7568  161.8075 C.3     1  UNL1        0.0939
      3 C         138.0541  140.3193  163.2421 C.3     1  UNL1        0.1107
      4 N         138.5228  138.9393  163.5967 N.am    1  UNL1       -0.2764
      5 C         138.5499  138.5020  165.0313 C.2     1  UNL1        0.2301
      6 O         139.0186  137.1219  165.3859 O.2     1  UNL1       -0.2745
      7 C         138.9643  137.9966  162.5167 C.3     1  UNL1        0.1107
      8 C         138.9371  138.4340  161.0821 C.3     1  UNL1        0.0939
      9 C         138.4412  140.2514  159.2930 C.3     1  UNL1        0.0770
     10 C         139.7073  140.6897  158.6184 C.3     1  UNL1        0.0467
     11 C         140.8064  142.8307  159.5972 C.ar    1  UNL1        0.1349
     12 C         141.8954  143.4826  160.3967 C.ar    1  UNL1        0.0428
     13 C         142.9742  142.6452  161.0172 C.ar    1  UNL1        0.0782
     14 C         142.9640  141.1560  160.8380 C.ar    1  UNL1        0.0274
     15 C         141.8751  140.5041  160.0385 C.ar    1  UNL1       -0.0017
     16 C         140.7963  141.3416  159.4180 C.ar    1  UNL1        0.0130
     17 C         144.1512  140.5938  161.5624 C.3     1  UNL1        0.2356
     18 O         144.8950  141.7357  162.1892 O.3     1  UNL1       -0.4404
     19 C         144.1676  143.0035  161.8522 C.2     1  UNL1        0.3414
     20 O         144.5640  144.3867  162.2760 O.2     1  UNL1       -0.2449
     21 C         140.0544  144.5903  157.8398 C.3     1  UNL1        0.2525
     22 O         139.7276  143.6682  158.9767 O.3     1  UNL1       -0.4717
     23 C         138.1084  139.4447  166.1112 C.3     1  UNL1        0.1116
     24 C         139.1290  140.1828  166.9258 C.ar    1  UNL1       -0.0130
     25 C         139.3098  139.8541  168.3781 C.ar    1  UNL1       -0.0022
     26 C         140.3305  140.5922  169.1928 C.ar    1  UNL1        0.0190
     27 C         141.1703  141.6589  168.5551 C.ar    1  UNL1        0.0862
     28 C         140.9895  141.9875  167.1027 C.ar    1  UNL1        0.0190
     29 C         139.9689  141.2495  166.2881 C.ar    1  UNL1       -0.0022
     30 N         142.1909  142.3970  169.3696 N.ar    1  UNL1       -0.1886
     31 C         143.6796  142.2444  169.2663 C.ar    1  UNL1        0.2258
     32 N         144.3107  143.1704  170.2633 N.ar    1  UNL1       -0.1045
     33 N         143.2122  143.8953  170.9830 N.ar    1  UNL1       -0.0222
     34 N         141.9021  143.4172  170.4306 N.ar    1  UNL1       -0.0385
@<TRIPOS>BOND
     1    21    22    1
     2    22    11    1
     3    11    12   ar
     4    12    13   ar
     5    13    14   ar
     6    14    15   ar
     7    15    16   ar
     8    16    10    1
     9    10     9    1
    10     9     1    1
    11     1     2    1
    12     2     3    1
    13     3     4    1
    14     4     5   am
    15     5     6    2
    16     5    23    1
    17    23    24    1
    18    24    25   ar
    19    25    26   ar
    20    26    27   ar
    21    27    30    1
    22    30    31   ar
    23    31    32   ar
    24    32    33   ar
    25    33    34   ar
    26    27    28   ar
    27    28    29   ar
    28     4     7    1
    29     7     8    1
    30    14    17    1
    31    17    18    1
    32    18    19    1
    33    19    20    2
    34    16    11   ar
    35     8     1    1
    36    19    13    1
    37    29    24   ar
    38    34    30   ar
@<TRIPOS>MOLECULE
*****
 34 38 0 0 0
SMALL
GASTEIGER

@<TRIPOS>ATOM
      1 N         141.8570  138.7606  160.2438 N.3     1  UNL1       -0.2695
      2 C         141.4617  138.1161  161.5393 C.3     1  UNL1        0.0939
      3 C         142.2700  138.3651  162.7782 C.3     1  UNL1        0.1107
      4 N         143.4736  139.2585  162.7215 N.am    1  UNL1       -0.2764
      5 C         144.2818  139.5075  163.9603 C.2     1  UNL1        0.2301
      6 O         145.4854  140.4009  163.9036 O.2     1  UNL1       -0.2745
      7 C         143.8689  139.9030  161.4259 C.3     1  UNL1        0.1107
      8 C         143.0606  139.6540  160.1871 C.3     1  UNL1        0.0939
      9 C         141.0488  138.5116  159.0049 C.3     1  UNL1        0.0770
     10 C         139.7384  139.2153  158.8103 C.3     1  UNL1        0.0467
     11 C         138.3818  140.1513  160.8187 C.ar    1  UNL1        0.1349
     12 C         138.0057  141.2965  161.7114 C.ar    1  UNL1        0.0428
     13 C         138.6101  142.6511  161.4885 C.ar    1  UNL1        0.0782
     14 C         139.5906  142.8605  160.3728 C.ar    1  UNL1        0.0274
     15 C         139.9667  141.7153  159.4801 C.ar    1  UNL1       -0.0017
     16 C         139.3623  140.3606  159.7031 C.ar    1  UNL1        0.0130
     17 C         140.0189  144.2978  160.3958 C.3     1  UNL1        0.2356
     18 O         139.3031  144.9768  161.5256 O.3     1  UNL1       -0.4404
     19 C         138.4324  143.9591  162.2010 C.2     1  UNL1        0.3414
     20 O         137.5406  144.2060  163.3815 O.2     1  UNL1       -0.2449
     21 C         138.0802  138.0381  162.2997 C.3     1  UNL1        0.2525
     22 O         137.7774  138.7966  161.0417 O.3     1  UNL1       -0.4717
     23 C         143.8865  138.8630  165.2559 C.3     1  UNL1        0.1116
     24 C         143.1578  139.6589  166.2977 C.ar    1  UNL1       -0.0130
     25 C         142.6990  141.0537  165.9909 C.ar    1  UNL1       -0.0022
     26 C         141.9702  141.8497  167.0328 C.ar    1  UNL1        0.0190
     27 C         141.7003  141.2510  168.3813 C.ar    1  UNL1        0.0862
     28 C         142.1591  139.8561  168.6880 C.ar    1  UNL1        0.0190
     29 C         142.8879  139.0601  167.6462 C.ar    1  UNL1       -0.0022
     30 N         140.9716  142.0469  169.4231 N.ar    1  UNL1       -0.1886
     31 C         140.6130  141.5761  170.8014 C.ar    1  UNL1        0.2258
     32 N         139.8933  142.6916  171.4997 N.ar    1  UNL1       -0.1045
     33 N         139.8071  143.8520  170.5529 N.ar    1  UNL1       -0.0222
     34 N         140.4736  143.4534  169.2696 N.ar    1  UNL1       -0.0385
@<TRIPOS>BOND
     1    21    22    1
     2    22    11    1
     3    11    12   ar
     4    12    13   ar
     5    13    14   ar
     6    14    15   ar
     7    15    16   ar
     8    16    10    1
     9    10     9    1
    10     9     1    1
    11     1     2    1
    12     2     3    1
    13     3     4    1
    14     4     5   am
    15     5     6    2
    16     5    23    1
    17    23    24    1
    18    24    25   ar
    19    25    26   ar
    20    26    27   ar
    21    27    30    1
    22    30    31   ar
    23    31    32   ar
    24    32    33   ar
    25    33    34   ar
    26    27    28   ar
    27    28    29   ar
    28     4     7    1
    29     7     8    1
    30    14    17    1
    31    17    18    1
    32    18    19    1
    33    19    20    2
    34    16    11   ar
    35     8     1    1
    36    19    13    1
    37    29    24   ar
    38    34    30   ar
@<TRIPOS>MOLECULE
*****
 34 38 0 0 0
SMALL
GASTEIGER

@<TRIPOS>ATOM
      1 N         142.3058  139.1072  160.0932 N.3     1  UNL1       -0.2695
      2 C         141.8808  138.2934  161.2795 C.3     1  UNL1        0.0939
      3 C         142.5704  138.4748  162.5993 C.3     1  UNL1        0.1107
      4 N         143.6847  139.4700  162.7328 N.am    1  UNL1       -0.2764
      5 C         144.3741  139.6514  164.0525 C.2     1  UNL1        0.2301
      6 O         145.4884  140.6466  164.1860 O.2     1  UNL1       -0.2745
      7 C         144.1096  140.2838  161.5464 C.3     1  UNL1        0.1107
      8 C         143.4201  140.1024  160.2267 C.3     1  UNL1        0.0939
      9 C         141.6163  138.9258  158.7735 C.3     1  UNL1        0.0770
     10 C         140.2056  139.4024  158.5925 C.3     1  UNL1        0.0467
     11 C         139.8908  141.9076  159.2050 C.ar    1  UNL1        0.1349
     12 C         139.3331  142.9625  160.1139 C.ar    1  UNL1        0.0428
     13 C         138.5326  142.5672  161.3192 C.ar    1  UNL1        0.0782
     14 C         138.2898  141.1170  161.6157 C.ar    1  UNL1        0.0274
     15 C         138.8474  140.0621  160.7068 C.ar    1  UNL1       -0.0017
     16 C         139.6479  140.4574  159.5014 C.ar    1  UNL1        0.0130
     17 C         137.4690  141.0310  162.8683 C.3     1  UNL1        0.2356
     18 O         137.2046  142.4281  163.3459 O.3     1  UNL1       -0.4404
     19 C         137.8619  143.3776  162.3886 C.2     1  UNL1        0.3414
     20 O         137.8505  144.8745  162.4838 O.2     1  UNL1       -0.2449
     21 C         140.0392  143.0614  156.8819 C.3     1  UNL1        0.2525
     22 O         140.6913  142.3029  157.9995 O.3     1  UNL1       -0.4717
     23 C         143.9492  138.8376  165.2388 C.3     1  UNL1        0.1116
     24 C         143.2560  139.4993  166.3927 C.ar    1  UNL1       -0.0130
     25 C         143.1569  138.7936  167.7126 C.ar    1  UNL1       -0.0022
     26 C         142.4637  139.4553  168.8667 C.ar    1  UNL1        0.0190
     27 C         141.8696  140.8227  168.7007 C.ar    1  UNL1        0.0862
     28 C         141.9688  141.5283  167.3807 C.ar    1  UNL1        0.0190
     29 C         142.6620  140.8666  166.2268 C.ar    1  UNL1       -0.0022
     30 N         141.1765  141.4844  169.8547 N.ar    1  UNL1       -0.1886
     31 C         140.2092  142.6273  169.7643 C.ar    1  UNL1        0.2258
     32 N         139.7638  142.9686  171.1554 N.ar    1  UNL1       -0.1045
     33 N         140.4558  142.0366  172.1056 N.ar    1  UNL1       -0.0222
     34 N         141.3289  141.1194  171.3015 N.ar    1  UNL1       -0.0385
@<TRIPOS>BOND
     1    21    22    1
     2    22    11    1
     3    11    12   ar
     4    12    13   ar
     5    13    14   ar
     6    14    15   ar
     7    15    16   ar
     8    16    10    1
     9    10     9    1
    10     9     1    1
    11     1     2    1
    12     2     3    1
    13     3     4    1
    14     4     5   am
    15     5     6    2
    16     5    23    1
    17    23    24    1
    18    24    25   ar
    19    25    26   ar
    20    26    27   ar
    21    27    30    1
    22    30    31   ar
    23    31    32   ar
    24    32    33   ar
    25    33    34   ar
    26    27    28   ar
    27    28    29   ar
    28     4     7    1
    29     7     8    1
    30    14    17    1
    31    17    18    1
    32    18    19    1
    33    19    20    2
    34    16    11   ar
    35     8     1    1
    36    19    13    1
    37    29    24   ar
    38    34    30   ar
@<TRIPOS>MOLECULE
*****
 34 38 0 0 0
SMALL
GASTEIGER

@<TRIPOS>ATOM
      1 N         143.5266  140.7632  160.5961 N.3     1  UNL1       -0.2695
      2 C         144.0848  140.7527  161.9883 C.3     1  UNL1        0.0939
      3 C         143.5393  139.7970  163.0078 C.3     1  UNL1        0.1107
      4 N         142.4359  138.8518  162.6350 N.am    1  UNL1       -0.2764
      5 C         141.8905  137.8962  163.6544 C.2     1  UNL1        0.2301
      6 O         140.7870  136.9510  163.2816 O.2     1  UNL1       -0.2745
      7 C         141.8778  138.8624  161.2427 C.3     1  UNL1        0.1107
      8 C         142.4232  139.8181  160.2233 C.3     1  UNL1        0.0939
      9 C         144.0720  141.7189  159.5766 C.3     1  UNL1        0.0770
     10 C         143.3912  143.0348  159.3425 C.3     1  UNL1        0.0467
     11 C         140.8226  143.2579  159.6631 C.ar    1  UNL1        0.1349
     12 C         139.6486  143.6557  160.5077 C.ar    1  UNL1        0.0428
     13 C         139.8692  144.2282  161.8765 C.ar    1  UNL1        0.0782
     14 C         141.2637  144.4030  162.4006 C.ar    1  UNL1        0.0274
     15 C         142.4377  144.0052  161.5560 C.ar    1  UNL1       -0.0017
     16 C         142.2171  143.4326  160.1872 C.ar    1  UNL1        0.0130
     17 C         141.1711  144.9898  163.7780 C.3     1  UNL1        0.2356
     18 O         139.7194  145.1777  164.1051 O.3     1  UNL1       -0.4404
     19 C         138.9147  144.7071  162.9299 C.2     1  UNL1        0.3414
     20 O         137.4183  144.7140  162.8264 O.2     1  UNL1       -0.2449
     21 C         140.3978  143.5995  157.1229 C.3     1  UNL1        0.2525
     22 O         140.6020  142.6853  158.2943 O.3     1  UNL1       -0.4717
     23 C         142.4487  137.8857  165.0467 C.3     1  UNL1        0.1116
     24 C         141.9289  138.8511  166.0703 C.ar    1  UNL1       -0.0130
     25 C         142.8229  139.3222  167.1789 C.ar    1  UNL1       -0.0022
     26 C         142.3032  140.2877  168.2026 C.ar    1  UNL1        0.0190
     27 C         140.8895  140.7820  168.1176 C.ar    1  UNL1        0.0862
     28 C         139.9956  140.3109  167.0090 C.ar    1  UNL1        0.0190
     29 C         140.5153  139.3455  165.9853 C.ar    1  UNL1       -0.0022
     30 N         140.3698  141.7475  169.1412 N.ar    1  UNL1       -0.1886
     31 C         140.6350  143.2234  169.1759 C.ar    1  UNL1        0.2258
     32 N         139.9227  143.7945  170.3660 N.ar    1  UNL1       -0.1045
     33 N         139.2171  142.6715  171.0669 N.ar    1  UNL1       -0.0222
     34 N         139.4935  141.4064  170.3098 N.ar    1  UNL1       -0.0385
@<TRIPOS>BOND
     1    21    22    1
     2    22    11    1
     3    11    12   ar
     4    12    13   ar
     5    13    14   ar
     6    14    15   ar
     7    15    16   ar
     8    16    10    1
     9    10     9    1
    10     9     1    1
    11     1     2    1
    12     2     3    1
    13     3     4    1
    14     4     5   am
    15     5     6    2
    16     5    23    1
    17    23    24    1
    18    24    25   ar
    19    25    26   ar
    20    26    27   ar
    21    27    30    1
    22    30    31   ar
    23    31    32   ar
    24    32    33   ar
    25    33    34   ar
    26    27    28   ar
    27    28    29   ar
    28     4     7    1
    29     7     8    1
    30    14    17    1
    31    17    18    1
    32    18    19    1
    33    19    20    2
    34    16    11   ar
    35     8     1    1
    36    19    13    1
    37    29    24   ar
    38    34    30   ar
@<TRIPOS>MOLECULE
*****
 34 38 0 0 0
SMALL
GASTEIGER

@<TRIPOS>ATOM
      1 N         140.8921  142.2242  159.1111 N.3     1  UNL1       -0.2695
      2 C         140.3544  141.1430  160.0010 C.3     1  UNL1        0.0939
      3 C         139.4205  141.4900  161.1224 C.3     1  UNL1        0.1107
      4 N         139.0244  142.9181  161.3540 N.am    1  UNL1       -0.2764
      5 C         138.0906  143.2650  162.4754 C.2     1  UNL1        0.2301
      6 O         137.6945  144.6931  162.7070 O.2     1  UNL1       -0.2745
      7 C         139.5622  143.9993  160.4641 C.3     1  UNL1        0.1107
      8 C         140.4961  143.6523  159.3427 C.3     1  UNL1        0.0939
      9 C         141.8260  141.8774  157.9897 C.3     1  UNL1        0.0770
     10 C         143.2836  141.6587  158.2680 C.3     1  UNL1        0.0467
     11 C         143.8375  139.8459  160.0447 C.ar    1  UNL1        0.1349
     12 C         144.2901  139.4764  161.4263 C.ar    1  UNL1        0.0428
     13 C         144.6415  140.5504  162.4127 C.ar    1  UNL1        0.0782
     14 C         144.5403  141.9939  162.0175 C.ar    1  UNL1        0.0274
     15 C         144.0877  142.3634  160.6360 C.ar    1  UNL1       -0.0017
     16 C         143.7363  141.2892  159.6496 C.ar    1  UNL1        0.0130
     17 C         144.9505  142.8269  163.1956 C.3     1  UNL1        0.2356
     18 O         145.3052  141.8982  164.3188 O.3     1  UNL1       -0.4404
     19 C         145.1142  140.4913  163.8350 C.2     1  UNL1        0.3414
     20 O         145.3539  139.2442  164.6333 O.2     1  UNL1       -0.2449
     21 C         142.4376  137.7546  159.3989 C.3     1  UNL1        0.2525
     22 O         143.4861  138.7717  159.0584 O.3     1  UNL1       -0.4717
     23 C         137.5528  142.1837  163.3652 C.3     1  UNL1        0.1116
     24 C         138.3878  141.6578  164.4949 C.ar    1  UNL1       -0.0130
     25 C         138.2284  140.2363  164.9466 C.ar    1  UNL1       -0.0022
     26 C         139.0634  139.7102  166.0763 C.ar    1  UNL1        0.0190
     27 C         140.0577  140.6056  166.7542 C.ar    1  UNL1        0.0862
     28 C         140.2171  142.0271  166.3024 C.ar    1  UNL1        0.0190
     29 C         139.3821  142.5532  165.1728 C.ar    1  UNL1       -0.0022
     30 N         140.8927  140.0796  167.8839 N.ar    1  UNL1       -0.1886
     31 C         140.4802  140.0032  169.3240 C.ar    1  UNL1        0.2258
     32 N         141.6194  139.4141  170.1018 N.ar    1  UNL1       -0.1045
     33 N         142.7361  139.1264  169.1425 N.ar    1  UNL1       -0.0222
     34 N         142.2869  139.5378  167.7717 N.ar    1  UNL1       -0.0385
@<TRIPOS>BOND
     1    21    22    1
     2    22    11    1
     3    11    12   ar
     4    12    13   ar
     5    13    14   ar
     6    14    15   ar
     7    15    16   ar
     8    16    10    1
     9    10     9    1
    10     9     1    1
    11     1     2    1
    12     2     3    1
    13     3     4    1
    14     4     5   am
    15     5     6    2
    16     5    23    1
    17    23    24    1
    18    24    25   ar
    19    25    26   ar
    20    26    27   ar
    21    27    30    1
    22    30    31   ar
    23    31    32   ar
    24    32    33   ar
    25    33    34   ar
    26    27    28   ar
    27    28    29   ar
    28     4     7    1
    29     7     8    1
    30    14    17    1
    31    17    18    1
    32    18    19    1
    33    19    20    2
    34    16    11   ar
    35     8     1    1
    36    19    13    1
    37    29    24   ar
    38    34    30   ar
