@<TRIPOS>MOLECULE
*****
 27 29 0 0 0
SMALL
GASTEIGER

@<TRIPOS>ATOM
      1 N         140.7967  141.2799  164.9187 N.pl3   1  UNL1       -0.2781
      2 C         141.3113  139.8774  164.7832 C.3     1  UNL1        0.0938
      3 C         140.6910  139.0491  165.8691 C.3     1  UNL1        0.0269
      4 C         139.7931  139.9397  166.6758 C.3     1  UNL1        0.0653
      5 C         139.8584  141.3184  166.0884 C.3     1  UNL1        0.0973
      6 C         144.3696  144.0255  162.3310 C.3     1  UNL1        0.0522
      7 C         142.9436  143.8129  162.7451 C.ar    1  UNL1        0.0638
      8 C         141.8782  144.7605  162.2795 C.ar    1  UNL1        0.0351
      9 CA        140.4522  144.5479  162.6936 C.ar    1  UNL1        0.0993
     10 N         140.0917  143.3877  163.5733 N.ar    1  UNL1       -0.2125
     11 C         141.1572  142.4401  164.0389 C.ar    1  UNL1        0.2198
     12 N         142.5831  142.6527  163.6248 N.ar    1  UNL1       -0.2180
     13 C         139.3867  145.4956  162.2279 C.2     1  UNL1        0.0906
     14 O         139.7662  146.8354  161.6705 O.co2   1  UNL1       -0.5430
     15 OXT       137.9419  145.1033  162.3198 O.co2   1  UNL1       -0.5430
     16 C         138.9737  139.5245  167.8616 C.3     1  UNL1        0.2070
     17 O         139.5001  139.7401  169.2495 O.3     1  UNL1       -0.4754
     18 C         140.3930  140.9099  169.5397 C.ar    1  UNL1        0.1424
     19 C         139.7958  142.2499  169.8525 C.ar    1  UNL1        0.0368
     20 C         140.6886  143.4197  170.1427 C.ar    1  UNL1        0.0031
     21 C         142.1788  143.2496  170.1201 C.ar    1  UNL1        0.0001
     22 C         142.7760  141.9096  169.8073 C.ar    1  UNL1        0.0069
     23 C         141.8831  140.7398  169.5171 C.ar    1  UNL1        0.1053
     24 C         142.4804  139.3998  169.2043 C.3     1  UNL1        0.4214
     25 F         143.0776  138.0598  168.8916 F       1  UNL1       -0.1657
     26 F         143.0670  139.9562  167.9408 F       1  UNL1       -0.1657
     27 F         141.8937  138.8435  170.4678 F       1  UNL1       -0.1657
@<TRIPOS>UNITY_ATOM_ATTR
14 1
charge -1
@<TRIPOS>BOND
     1     6     7    1
     2     7     8   ar
     3     8     9   ar
     4     9    13    1
     5    13    14   ar
     6    13    15   ar
     7     9    10   ar
     8    10    11   ar
     9    11     1    1
    10     1     2    1
    11     2     3    1
    12     3     4    1
    13     4    16    1
    14    16    17    1
    15    17    18    1
    16    18    19   ar
    17    19    20   ar
    18    20    21   ar
    19    21    22   ar
    20    22    23   ar
    21    23    24    1
    22    24    25    1
    23    24    26    1
    24    24    27    1
    25     4     5    1
    26    11    12   ar
    27    12     7   ar
    28     5     1    1
    29    23    18   ar
@<TRIPOS>MOLECULE
*****
 27 29 0 0 0
SMALL
GASTEIGER

@<TRIPOS>ATOM
      1 N         140.1909  140.7171  165.8991 N.pl3   1  UNL1       -0.2781
      2 C         141.1275  140.5434  164.7404 C.3     1  UNL1        0.0938
      3 C         140.3071  140.4866  163.4858 C.3     1  UNL1        0.0269
      4 C         138.8636  140.6251  163.8693 C.3     1  UNL1        0.0653
      5 C         138.7918  140.7676  165.3608 C.3     1  UNL1        0.0973
      6 C         142.6140  138.7562  170.0565 C.3     1  UNL1        0.0522
      7 C         141.7961  139.8414  169.4215 C.ar    1  UNL1        0.0638
      8 C         141.3716  141.0313  170.2301 C.ar    1  UNL1        0.0351
      9 CA        140.5537  142.1165  169.5951 C.ar    1  UNL1        0.0993
     10 N         140.1601  142.0118  168.1515 N.ar    1  UNL1       -0.2125
     11 C         140.5845  140.8219  167.3428 C.ar    1  UNL1        0.2198
     12 N         141.4025  139.7367  167.9779 N.ar    1  UNL1       -0.2180
     13 C         140.1292  143.3065  170.4038 C.2     1  UNL1        0.0906
     14 O         140.8550  144.6109  170.2564 O.co2   1  UNL1       -0.5430
     15 OXT       138.9790  143.1920  171.3598 O.co2   1  UNL1       -0.5430
     16 C         137.6967  140.6218  162.9267 C.3     1  UNL1        0.2070
     17 O         137.2426  141.9021  162.2909 O.3     1  UNL1       -0.4754
     18 C         138.2415  142.8106  161.6375 C.ar    1  UNL1        0.1424
     19 C         138.6846  142.5485  160.2287 C.ar    1  UNL1        0.0368
     20 C         139.6835  143.4569  159.5753 C.ar    1  UNL1        0.0031
     21 C         140.2392  144.6275  160.3308 C.ar    1  UNL1        0.0001
     22 C         139.7961  144.8897  161.7397 C.ar    1  UNL1        0.0069
     23 C         138.7971  143.9812  162.3930 C.ar    1  UNL1        0.1053
     24 C         138.3540  144.2434  163.8020 C.3     1  UNL1        0.4214
     25 F         137.9108  144.5056  165.2108 F       1  UNL1       -0.1657
     26 F         139.7046  143.8267  164.3043 F       1  UNL1       -0.1657
     27 F         137.0034  144.6601  163.2995 F       1  UNL1       -0.1657
@<TRIPOS>UNITY_ATOM_ATTR
14 1
charge -1
@<TRIPOS>BOND
     1     6     7    1
     2     7     8   ar
     3     8     9   ar
     4     9    13    1
     5    13    14   ar
     6    13    15   ar
     7     9    10   ar
     8    10    11   ar
     9    11     1    1
    10     1     2    1
    11     2     3    1
    12     3     4    1
    13     4    16    1
    14    16    17    1
    15    17    18    1
    16    18    19   ar
    17    19    20   ar
    18    20    21   ar
    19    21    22   ar
    20    22    23   ar
    21    23    24    1
    22    24    25    1
    23    24    26    1
    24    24    27    1
    25     4     5    1
    26    11    12   ar
    27    12     7   ar
    28     5     1    1
    29    23    18   ar
@<TRIPOS>MOLECULE
*****
 27 29 0 0 0
SMALL
GASTEIGER

@<TRIPOS>ATOM
      1 N         141.3000  140.1398  166.4155 N.pl3   1  UNL1       -0.2781
      2 C         142.2580  138.9915  166.2985 C.3     1  UNL1        0.0938
      3 C         142.6043  138.8225  164.8489 C.3     1  UNL1        0.0269
      4 C         141.8603  139.8665  164.0699 C.3     1  UNL1        0.0653
      5 C         141.0542  140.6806  165.0381 C.3     1  UNL1        0.0973
      6 C         137.9043  139.6280  170.3151 C.3     1  UNL1        0.0522
      7 C         138.9962  140.4007  169.6365 C.ar    1  UNL1        0.0638
      8 C         139.4823  141.6901  170.2290 C.ar    1  UNL1        0.0351
      9 CA        140.5743  142.4627  169.5503 C.ar    1  UNL1        0.0993
     10 N         141.1802  141.9460  168.2792 N.ar    1  UNL1       -0.2125
     11 C         140.6941  140.6566  167.6867 C.ar    1  UNL1        0.2198
     12 N         139.6021  139.8839  168.3653 N.ar    1  UNL1       -0.2180
     13 C         141.0604  143.7522  170.1429 C.2     1  UNL1        0.0906
     14 O         142.4915  143.8885  170.5710 O.co2   1  UNL1       -0.5430
     15 OXT       140.1153  144.9054  170.3073 O.co2   1  UNL1       -0.5430
     16 C         141.9132  140.0620  162.5836 C.3     1  UNL1        0.2070
     17 O         142.7988  141.1214  161.9975 O.3     1  UNL1       -0.4754
     18 C         142.8141  142.4989  162.5910 C.ar    1  UNL1        0.1424
     19 C         141.7253  143.4735  162.2525 C.ar    1  UNL1        0.0368
     20 C         141.7406  144.8510  162.8459 C.ar    1  UNL1        0.0031
     21 C         142.8447  145.2538  163.7780 C.ar    1  UNL1        0.0001
     22 C         143.9335  144.2792  164.1165 C.ar    1  UNL1        0.0069
     23 C         143.9182  142.9017  163.5230 C.ar    1  UNL1        0.1053
     24 C         145.0070  141.9270  163.8616 C.3     1  UNL1        0.4214
     25 F         146.0958  140.9524  164.2002 F       1  UNL1       -0.1657
     26 F         145.6451  142.1763  162.5271 F       1  UNL1       -0.1657
     27 F         144.3688  141.6778  165.1960 F       1  UNL1       -0.1657
@<TRIPOS>UNITY_ATOM_ATTR
14 1
charge -1
@<TRIPOS>BOND
     1     6     7    1
     2     7     8   ar
     3     8     9   ar
     4     9    13    1
     5    13    14   ar
     6    13    15   ar
     7     9    10   ar
     8    10    11   ar
     9    11     1    1
    10     1     2    1
    11     2     3    1
    12     3     4    1
    13     4    16    1
    14    16    17    1
    15    17    18    1
    16    18    19   ar
    17    19    20   ar
    18    20    21   ar
    19    21    22   ar
    20    22    23   ar
    21    23    24    1
    22    24    25    1
    23    24    26    1
    24    24    27    1
    25     4     5    1
    26    11    12   ar
    27    12     7   ar
    28     5     1    1
    29    23    18   ar
@<TRIPOS>MOLECULE
*****
 27 29 0 0 0
SMALL
GASTEIGER

@<TRIPOS>ATOM
      1 N         139.5626  142.4679  164.5350 N.pl3   1  UNL1       -0.2781
      2 C         138.6286  143.6269  164.7209 C.3     1  UNL1        0.0938
      3 C         139.3929  144.8873  164.4430 C.3     1  UNL1        0.0269
      4 C         140.7992  144.5073  164.0855 C.3     1  UNL1        0.0653
      5 C         140.9041  143.0121  164.1423 C.3     1  UNL1        0.0973
      6 C         139.3310  137.6343  162.6423 C.3     1  UNL1        0.0522
      7 C         139.1001  138.6023  163.7646 C.ar    1  UNL1        0.0638
      8 C         138.5226  138.1217  165.0628 C.ar    1  UNL1        0.0351
      9 CA        138.2917  139.0898  166.1851 C.ar    1  UNL1        0.0993
     10 N         138.6383  140.5385  166.0092 N.ar    1  UNL1       -0.2125
     11 C         139.2159  141.0191  164.7110 C.ar    1  UNL1        0.2198
     12 N         139.4468  140.0511  163.5887 N.ar    1  UNL1       -0.2180
     13 C         137.7141  138.6091  167.4833 C.2     1  UNL1        0.0906
     14 O         138.1197  139.2611  168.7718 O.co2   1  UNL1       -0.5430
     15 OXT       136.7308  137.4763  167.4930 O.co2   1  UNL1       -0.5430
     16 C         141.9063  145.4561  163.7329 C.3     1  UNL1        0.2070
     17 O         143.3168  145.1467  164.1389 O.3     1  UNL1       -0.4754
     18 C         144.0075  143.9349  163.5871 C.ar    1  UNL1        0.1424
     19 C         144.2389  143.8109  162.1102 C.ar    1  UNL1        0.0368
     20 C         144.9295  142.5991  161.5585 C.ar    1  UNL1        0.0031
     21 C         145.3887  141.5112  162.4835 C.ar    1  UNL1        0.0001
     22 C         145.1573  141.6353  163.9603 C.ar    1  UNL1        0.0069
     23 C         144.4667  142.8471  164.5121 C.ar    1  UNL1        0.1053
     24 C         144.2353  142.9711  165.9891 C.3     1  UNL1        0.4214
     25 F         144.0039  143.0951  167.4659 F       1  UNL1       -0.1657
     26 F         143.2400  141.8505  165.9272 F       1  UNL1       -0.1657
     27 F         145.2305  144.0917  166.0508 F       1  UNL1       -0.1657
@<TRIPOS>UNITY_ATOM_ATTR
14 1
charge -1
@<TRIPOS>BOND
     1     6     7    1
     2     7     8   ar
     3     8     9   ar
     4     9    13    1
     5    13    14   ar
     6    13    15   ar
     7     9    10   ar
     8    10    11   ar
     9    11     1    1
    10     1     2    1
    11     2     3    1
    12     3     4    1
    13     4    16    1
    14    16    17    1
    15    17    18    1
    16    18    19   ar
    17    19    20   ar
    18    20    21   ar
    19    21    22   ar
    20    22    23   ar
    21    23    24    1
    22    24    25    1
    23    24    26    1
    24    24    27    1
    25     4     5    1
    26    11    12   ar
    27    12     7   ar
    28     5     1    1
    29    23    18   ar
@<TRIPOS>MOLECULE
*****
 27 29 0 0 0
SMALL
GASTEIGER

@<TRIPOS>ATOM
      1 N         142.5550  140.6978  166.0113 N.pl3   1  UNL1       -0.2781
      2 C         143.8924  140.7311  165.3327 C.3     1  UNL1        0.0938
      3 C         143.6623  140.9351  163.8646 C.3     1  UNL1        0.0269
      4 C         142.1827  141.0279  163.6358 C.3     1  UNL1        0.0653
      5 C         141.4984  140.8812  164.9626 C.3     1  UNL1        0.0973
      6 C         143.0965  137.8728  170.3387 C.3     1  UNL1        0.0522
      7 C         142.5870  139.1010  169.6444 C.ar    1  UNL1        0.0638
      8 C         141.8388  140.1447  170.4194 C.ar    1  UNL1        0.0351
      9 CA        141.3293  141.3729  169.7251 C.ar    1  UNL1        0.0993
     10 N         141.5680  141.5572  168.2557 N.ar    1  UNL1       -0.2125
     11 C         142.3162  140.5135  167.4807 C.ar    1  UNL1        0.2198
     12 N         142.8257  139.2853  168.1750 N.ar    1  UNL1       -0.2180
     13 C         140.5810  142.4166  170.5001 C.2     1  UNL1        0.0906
     14 O         140.0212  143.6165  169.7953 O.co2   1  UNL1       -0.5430
     15 OXT       140.3926  142.2605  171.9800 O.co2   1  UNL1       -0.5430
     16 C         141.5062  141.2315  162.3126 C.3     1  UNL1        0.2070
     17 O         140.8368  142.5383  162.0058 O.3     1  UNL1       -0.4754
     18 C         139.8307  143.1082  162.9613 C.ar    1  UNL1        0.1424
     19 C         138.4738  142.4807  163.0841 C.ar    1  UNL1        0.0368
     20 C         137.4677  143.0505  164.0396 C.ar    1  UNL1        0.0031
     21 C         137.8185  144.2478  164.8723 C.ar    1  UNL1        0.0001
     22 C         139.1754  144.8753  164.7494 C.ar    1  UNL1        0.0069
     23 C         140.1815  144.3055  163.7939 C.ar    1  UNL1        0.1053
     24 C         141.5384  144.9330  163.6711 C.3     1  UNL1        0.4214
     25 F         142.8953  145.5605  163.5483 F       1  UNL1       -0.1657
     26 F         141.0412  145.7874  162.5429 F       1  UNL1       -0.1657
     27 F         142.0356  144.0785  164.7993 F       1  UNL1       -0.1657
@<TRIPOS>UNITY_ATOM_ATTR
14 1
charge -1
@<TRIPOS>BOND
     1     6     7    1
     2     7     8   ar
     3     8     9   ar
     4     9    13    1
     5    13    14   ar
     6    13    15   ar
     7     9    10   ar
     8    10    11   ar
     9    11     1    1
    10     1     2    1
    11     2     3    1
    12     3     4    1
    13     4    16    1
    14    16    17    1
    15    17    18    1
    16    18    19   ar
    17    19    20   ar
    18    20    21   ar
    19    21    22   ar
    20    22    23   ar
    21    23    24    1
    22    24    25    1
    23    24    26    1
    24    24    27    1
    25     4     5    1
    26    11    12   ar
    27    12     7   ar
    28     5     1    1
    29    23    18   ar
@<TRIPOS>MOLECULE
*****
 27 29 0 0 0
SMALL
GASTEIGER

@<TRIPOS>ATOM
      1 N         142.8473  140.2291  165.9338 N.pl3   1  UNL1       -0.2781
      2 C         143.4542  139.0057  165.3133 C.3     1  UNL1        0.0938
      3 C         144.5626  139.4481  164.4046 C.3     1  UNL1        0.0269
      4 C         144.6408  140.9449  164.4636 C.3     1  UNL1        0.0653
      5 C         143.5807  141.4276  165.4087 C.3     1  UNL1        0.0973
      6 C         137.9697  138.9441  167.1819 C.3     1  UNL1        0.0522
      7 C         139.2684  139.6077  167.5324 C.ar    1  UNL1        0.0638
      8 C         139.4271  140.2925  168.8575 C.ar    1  UNL1        0.0351
      9 CA        140.7258  140.9561  169.2081 C.ar    1  UNL1        0.0993
     10 N         141.8659  140.9350  168.2336 N.ar    1  UNL1       -0.2125
     11 C         141.7072  140.2502  166.9085 C.ar    1  UNL1        0.2198
     12 N         140.4085  139.5866  166.5579 N.ar    1  UNL1       -0.2180
     13 C         140.8844  141.6408  170.5333 C.2     1  UNL1        0.0906
     14 O         141.3814  143.0549  170.5921 O.co2   1  UNL1       -0.5430
     15 OXT       140.5461  140.9115  171.7996 O.co2   1  UNL1       -0.5430
     16 C         145.6091  141.8076  163.7098 C.3     1  UNL1        0.2070
     17 O         145.1173  142.7065  162.6143 O.3     1  UNL1       -0.4754
     18 C         143.8204  143.4431  162.7740 C.ar    1  UNL1        0.1424
     19 C         143.7640  144.6909  163.6045 C.ar    1  UNL1        0.0368
     20 C         142.4672  145.4275  163.7642 C.ar    1  UNL1        0.0031
     21 C         141.2267  144.9164  163.0933 C.ar    1  UNL1        0.0001
     22 C         141.2832  143.6686  162.2628 C.ar    1  UNL1        0.0069
     23 C         142.5801  142.9319  162.1032 C.ar    1  UNL1        0.1053
     24 C         142.6365  141.6840  161.2726 C.3     1  UNL1        0.4214
     25 F         142.6929  140.4362  160.4421 F       1  UNL1       -0.1657
     26 F         143.1972  142.4724  160.1262 F       1  UNL1       -0.1657
     27 F         142.0757  140.8958  162.4190 F       1  UNL1       -0.1657
@<TRIPOS>UNITY_ATOM_ATTR
14 1
charge -1
@<TRIPOS>BOND
     1     6     7    1
     2     7     8   ar
     3     8     9   ar
     4     9    13    1
     5    13    14   ar
     6    13    15   ar
     7     9    10   ar
     8    10    11   ar
     9    11     1    1
    10     1     2    1
    11     2     3    1
    12     3     4    1
    13     4    16    1
    14    16    17    1
    15    17    18    1
    16    18    19   ar
    17    19    20   ar
    18    20    21   ar
    19    21    22   ar
    20    22    23   ar
    21    23    24    1
    22    24    25    1
    23    24    26    1
    24    24    27    1
    25     4     5    1
    26    11    12   ar
    27    12     7   ar
    28     5     1    1
    29    23    18   ar
@<TRIPOS>MOLECULE
*****
 27 29 0 0 0
SMALL
GASTEIGER

@<TRIPOS>ATOM
      1 N         139.7549  143.7893  162.5101 N.pl3   1  UNL1       -0.2781
      2 C         139.2056  144.8795  163.3818 C.3     1  UNL1        0.0938
      3 C         139.5184  144.5347  164.8077 C.3     1  UNL1        0.0269
      4 C         140.2610  143.2314  164.8173 C.3     1  UNL1        0.0653
      5 C         140.4071  142.7708  163.3973 C.3     1  UNL1        0.0973
      6 C         138.1096  141.4136  158.1916 C.3     1  UNL1        0.0522
      7 C         138.8446  142.5406  158.8547 C.ar    1  UNL1        0.0638
      8 C         139.4920  143.6067  158.0215 C.ar    1  UNL1        0.0351
      9 CA        140.2271  144.7337  158.6845 C.ar    1  UNL1        0.0993
     10 N         140.3147  144.7946  160.1807 N.ar    1  UNL1       -0.2125
     11 C         139.6673  143.7285  161.0138 C.ar    1  UNL1        0.2198
     12 N         138.9322  142.6015  160.3508 N.ar    1  UNL1       -0.2180
     13 C         140.8745  145.7999  157.8513 C.2     1  UNL1        0.0906
     14 O         140.0548  146.5891  156.8740 O.co2   1  UNL1       -0.5430
     15 OXT       142.3417  146.0767  157.9953 O.co2   1  UNL1       -0.5430
     16 C         140.7683  142.5146  166.0333 C.3     1  UNL1        0.2070
     17 O         142.2206  142.5946  166.3997 O.3     1  UNL1       -0.4754
     18 C         143.2433  141.8713  165.5745 C.ar    1  UNL1        0.1424
     19 C         143.2586  140.3717  165.5446 C.ar    1  UNL1        0.0368
     20 C         144.2812  139.6484  164.7194 C.ar    1  UNL1        0.0031
     21 C         145.2886  140.4247  163.9240 C.ar    1  UNL1        0.0001
     22 C         145.2732  141.9244  163.9539 C.ar    1  UNL1        0.0069
     23 C         144.2506  142.6477  164.7792 C.ar    1  UNL1        0.1053
     24 C         144.2353  144.1473  164.8090 C.3     1  UNL1        0.4214
     25 F         144.2199  145.6470  164.8388 F       1  UNL1       -0.1657
     26 F         145.1237  144.1323  166.0176 F       1  UNL1       -0.1657
     27 F         143.3469  144.1622  163.6005 F       1  UNL1       -0.1657
@<TRIPOS>UNITY_ATOM_ATTR
14 1
charge -1
@<TRIPOS>BOND
     1     6     7    1
     2     7     8   ar
     3     8     9   ar
     4     9    13    1
     5    13    14   ar
     6    13    15   ar
     7     9    10   ar
     8    10    11   ar
     9    11     1    1
    10     1     2    1
    11     2     3    1
    12     3     4    1
    13     4    16    1
    14    16    17    1
    15    17    18    1
    16    18    19   ar
    17    19    20   ar
    18    20    21   ar
    19    21    22   ar
    20    22    23   ar
    21    23    24    1
    22    24    25    1
    23    24    26    1
    24    24    27    1
    25     4     5    1
    26    11    12   ar
    27    12     7   ar
    28     5     1    1
    29    23    18   ar
@<TRIPOS>MOLECULE
*****
 27 29 0 0 0
SMALL
GASTEIGER

@<TRIPOS>ATOM
      1 N         142.4516  141.0763  166.1663 N.pl3   1  UNL1       -0.2781
      2 C         143.5850  141.8716  165.5894 C.3     1  UNL1        0.0938
      3 C         143.4096  141.9158  164.1003 C.3     1  UNL1        0.0269
      4 C         142.1676  141.1478  163.7570 C.3     1  UNL1        0.0653
      5 C         141.5755  140.6291  165.0339 C.3     1  UNL1        0.0973
      6 C         143.0914  137.9520  170.2687 C.3     1  UNL1        0.0522
      7 C         142.5525  139.2182  169.6717 C.ar    1  UNL1        0.0638
      8 C         141.7948  140.1884  170.5287 C.ar    1  UNL1        0.0351
      9 CA        141.2559  141.4545  169.9316 C.ar    1  UNL1        0.0993
     10 N         141.4748  141.7505  168.4775 N.ar    1  UNL1       -0.2125
     11 C         142.2326  140.7804  167.6205 C.ar    1  UNL1        0.2198
     12 N         142.7714  139.5142  168.2176 N.ar    1  UNL1       -0.2180
     13 C         140.4981  142.4247  170.7887 C.2     1  UNL1        0.0906
     14 O         139.8720  143.6402  170.1719 O.co2   1  UNL1       -0.5430
     15 OXT       140.3665  142.1794  172.2627 O.co2   1  UNL1       -0.5430
     16 C         141.6147  140.9359  162.3788 C.3     1  UNL1        0.2070
     17 O         140.5305  141.8330  161.8595 O.3     1  UNL1       -0.4754
     18 C         139.6882  142.6232  162.8167 C.ar    1  UNL1        0.1424
     19 C         140.1320  143.9866  163.2572 C.ar    1  UNL1        0.0368
     20 C         139.2897  144.7767  164.2143 C.ar    1  UNL1        0.0031
     21 C         138.0035  144.2034  164.7310 C.ar    1  UNL1        0.0001
     22 C         137.5597  142.8399  164.2905 C.ar    1  UNL1        0.0069
     23 C         138.4020  142.0498  163.3333 C.ar    1  UNL1        0.1053
     24 C         137.9581  140.6863  162.8928 C.3     1  UNL1        0.4214
     25 F         137.5142  139.3229  162.4524 F       1  UNL1       -0.1657
     26 F         137.4702  141.2637  161.5972 F       1  UNL1       -0.1657
     27 F         138.4461  140.1090  164.1885 F       1  UNL1       -0.1657
@<TRIPOS>UNITY_ATOM_ATTR
14 1
charge -1
@<TRIPOS>BOND
     1     6     7    1
     2     7     8   ar
     3     8     9   ar
     4     9    13    1
     5    13    14   ar
     6    13    15   ar
     7     9    10   ar
     8    10    11   ar
     9    11     1    1
    10     1     2    1
    11     2     3    1
    12     3     4    1
    13     4    16    1
    14    16    17    1
    15    17    18    1
    16    18    19   ar
    17    19    20   ar
    18    20    21   ar
    19    21    22   ar
    20    22    23   ar
    21    23    24    1
    22    24    25    1
    23    24    26    1
    24    24    27    1
    25     4     5    1
    26    11    12   ar
    27    12     7   ar
    28     5     1    1
    29    23    18   ar
@<TRIPOS>MOLECULE
*****
 27 29 0 0 0
SMALL
GASTEIGER

@<TRIPOS>ATOM
      1 N         140.2490  140.6392  166.0644 N.pl3   1  UNL1       -0.2781
      2 C         138.8313  140.5118  165.5912 C.3     1  UNL1        0.0938
      3 C         138.8336  140.5911  164.0934 C.3     1  UNL1        0.0269
      4 C         140.2529  140.7675  163.6408 C.3     1  UNL1        0.0653
      5 C         141.1276  140.7972  164.8589 C.3     1  UNL1        0.0973
      6 C         142.9565  138.3795  169.8806 C.3     1  UNL1        0.0522
      7 C         142.0614  139.4832  169.4004 C.ar    1  UNL1        0.0638
      8 C         141.6249  140.5608  170.3482 C.ar    1  UNL1        0.0351
      9 CA        140.7298  141.6645  169.8680 C.ar    1  UNL1        0.0993
     10 N         140.2712  141.6907  168.4401 N.ar    1  UNL1       -0.2125
     11 C         140.7077  140.6131  167.4924 C.ar    1  UNL1        0.2198
     12 N         141.6028  139.5093  167.9726 N.ar    1  UNL1       -0.2180
     13 C         140.2934  142.7422  170.8158 C.2     1  UNL1        0.0906
     14 O         140.2356  142.4669  172.2892 O.co2   1  UNL1       -0.5430
     15 OXT       139.9146  144.0950  170.2902 O.co2   1  UNL1       -0.5430
     16 C         140.7160  140.8923  162.2195 C.3     1  UNL1        0.2070
     17 O         140.9208  142.2492  161.6138 O.3     1  UNL1       -0.4754
     18 C         141.8070  143.2490  162.2959 C.ar    1  UNL1        0.1424
     19 C         143.2967  143.1544  162.1484 C.ar    1  UNL1        0.0368
     20 C         144.1828  144.1541  162.8304 C.ar    1  UNL1        0.0031
     21 C         143.5793  145.2485  163.6599 C.ar    1  UNL1        0.0001
     22 C         142.0896  145.3431  163.8073 C.ar    1  UNL1        0.0069
     23 C         141.2034  144.3433  163.1253 C.ar    1  UNL1        0.1053
     24 C         139.7136  144.4379  163.2728 C.3     1  UNL1        0.4214
     25 F         138.2239  144.5326  163.4202 F       1  UNL1       -0.1657
     26 F         139.8153  143.8766  164.6602 F       1  UNL1       -0.1657
     27 F         139.6120  144.9992  161.8854 F       1  UNL1       -0.1657
@<TRIPOS>UNITY_ATOM_ATTR
14 1
charge -1
@<TRIPOS>BOND
     1     6     7    1
     2     7     8   ar
     3     8     9   ar
     4     9    13    1
     5    13    14   ar
     6    13    15   ar
     7     9    10   ar
     8    10    11   ar
     9    11     1    1
    10     1     2    1
    11     2     3    1
    12     3     4    1
    13     4    16    1
    14    16    17    1
    15    17    18    1
    16    18    19   ar
    17    19    20   ar
    18    20    21   ar
    19    21    22   ar
    20    22    23   ar
    21    23    24    1
    22    24    25    1
    23    24    26    1
    24    24    27    1
    25     4     5    1
    26    11    12   ar
    27    12     7   ar
    28     5     1    1
    29    23    18   ar
