@<TRIPOS>MOLECULE
*****
 35 38 0 0 0
SMALL
GASTEIGER

@<TRIPOS>ATOM
      1 C         141.4071  145.0268  162.1034 C.3     1  UNL1        0.0401
      2 C         142.3261  144.6297  163.2205 C.3     1  UNL1        0.0595
      3 C         143.7848  144.9715  163.1491 C.3     1  UNL1        0.0174
      4 C         140.7065  142.4127  166.7859 C.3     1  UNL1        0.0905
      5 C         139.7948  143.2681  165.9571 C.3     1  UNL1        0.0400
      6 C         140.3347  144.0071  164.7687 C.3     1  UNL1        0.0740
      7 N         141.7862  143.8906  164.4090 N.3     1  UNL1       -0.2738
      8 C         142.6980  143.0352  165.2378 C.3     1  UNL1        0.0740
      9 C         142.1581  142.2962  166.4262 C.3     1  UNL1        0.0400
     10 C         140.6367  143.5109  169.8582 C.3     1  UNL1        0.0738
     11 C         140.1346  142.1785  169.3865 C.ar    1  UNL1        0.1433
     12 N         139.5123  141.1169  170.2443 N.ar    1  UNL1       -0.1337
     13 N         139.1597  139.9559  169.3622 N.ar    1  UNL1       -0.1337
     14 C         139.5642  140.3001  167.9594 C.ar    1  UNL1        0.1425
     15 N         140.1667  141.6737  167.9744 N.ar    1  UNL1       -0.3039
     16 C         139.3957  139.4243  166.7533 C.3     1  UNL1        0.0588
     17 C         138.0230  139.0088  166.3139 C.3     1  UNL1        0.0080
     18 C         140.5999  138.9641  165.9865 C.3     1  UNL1        0.0080
     19 C         141.1039  144.0562  161.0007 C.3     1  UNL1        0.0954
     20 C         141.2481  144.4790  159.5688 C.ar    1  UNL1       -0.0045
     21 C         142.3236  143.8770  158.7137 C.ar    1  UNL1       -0.0027
     22 C         142.4678  144.2997  157.2818 C.ar    1  UNL1       -0.0003
     23 C         141.5366  145.3245  156.7049 C.ar    1  UNL1       -0.0000
     24 C         140.4612  145.9264  157.5599 C.ar    1  UNL1       -0.0003
     25 C         140.3169  145.5036  158.9919 C.ar    1  UNL1       -0.0027
     26 N         140.6565  142.6628  161.3299 N.am    1  UNL1       -0.3022
     27 C         139.1930  142.3467  161.4202 C.2     1  UNL1        0.2225
     28 O         138.1768  143.4239  161.1813 O.2     1  UNL1       -0.2751
     29 H         141.3234  141.9558  161.4867 H       1  UNL1        0.1497
     30 C         138.7456  140.9533  161.7494 C.3     1  UNL1        0.0873
     31 C         137.7158  140.0119  161.1986 C.3     1  UNL1        0.0758
     32 C         138.1129  138.9828  162.2149 C.3     1  UNL1        0.2649
     33 F         138.5100  137.9537  163.2314 F       1  UNL1       -0.2043
     34 F         137.0832  138.0414  161.6642 F       1  UNL1       -0.2043
     35 C         139.1426  139.9241  162.7658 C.3     1  UNL1        0.0758
@<TRIPOS>BOND
     1    10    11    1
     2    11    12   ar
     3    12    13   ar
     4    13    14   ar
     5    14    16    1
     6    16    17    1
     7    16    18    1
     8    14    15   ar
     9    15     4    1
    10     4     5    1
    11     5     6    1
    12     6     7    1
    13     7     2    1
    14     2     3    1
    15     2     1    1
    16    19     1    1
    17    19    26    1
    18    26    27   am
    19    27    28    2
    20    27    30    1
    21    30    31    1
    22    31    32    1
    23    32    33    1
    24    32    34    1
    25    32    35    1
    26    19    20    1
    27    20    21   ar
    28    21    22   ar
    29    22    23   ar
    30    23    24   ar
    31    24    25   ar
    32     7     8    1
    33     8     9    1
    34    15    11   ar
    35     9     4    1
    36    35    30    1
    37    25    20   ar
    38    26    29    1
@<TRIPOS>MOLECULE
*****
 35 38 0 0 0
SMALL
GASTEIGER

@<TRIPOS>ATOM
      1 C         141.3938  145.0485  162.1097 C.3     1  UNL1        0.0401
      2 C         142.2991  144.6716  163.2447 C.3     1  UNL1        0.0595
      3 C         143.7341  145.1082  163.2363 C.3     1  UNL1        0.0174
      4 C         140.7100  142.2311  166.6753 C.3     1  UNL1        0.0905
      5 C         142.1525  142.1185  166.2796 C.3     1  UNL1        0.0400
      6 C         142.6822  142.9320  165.1361 C.3     1  UNL1        0.0740
      7 N         141.7694  143.8581  164.3883 N.3     1  UNL1       -0.2738
      8 C         140.3269  143.9707  164.7840 C.3     1  UNL1        0.0740
      9 C         139.7973  143.1572  165.9275 C.3     1  UNL1        0.0400
     10 C         139.0289  139.4448  166.4306 C.3     1  UNL1        0.0738
     11 C         139.4076  140.1369  167.7063 C.ar    1  UNL1        0.1433
     12 N         139.0800  139.6698  169.0936 N.ar    1  UNL1       -0.1337
     13 N         139.6503  140.6618  170.0635 N.ar    1  UNL1       -0.1337
     14 C         140.3303  141.7420  169.2756 C.ar    1  UNL1        0.1425
     15 N         140.1803  141.4176  167.8188 N.ar    1  UNL1       -0.3039
     16 C         141.0363  142.9369  169.8447 C.3     1  UNL1        0.0588
     17 C         142.4627  142.8216  170.2941 C.3     1  UNL1        0.0080
     18 C         140.3159  144.2471  169.9643 C.3     1  UNL1        0.0080
     19 C         141.1132  144.0624  161.0149 C.3     1  UNL1        0.0954
     20 C         141.2647  144.4716  159.5798 C.ar    1  UNL1       -0.0045
     21 C         140.3508  145.5074  158.9947 C.ar    1  UNL1       -0.0027
     22 C         140.5024  145.9166  157.5596 C.ar    1  UNL1       -0.0003
     23 C         141.5678  145.2902  156.7096 C.ar    1  UNL1       -0.0000
     24 C         142.4816  144.2545  157.2946 C.ar    1  UNL1       -0.0003
     25 C         142.3301  143.8453  158.7297 C.ar    1  UNL1       -0.0027
     26 N         140.6810  142.6668  161.3552 N.am    1  UNL1       -0.3022
     27 C         139.2277  142.2988  161.3062 C.2     1  UNL1        0.2225
     28 O         138.2065  143.3263  160.9171 O.2     1  UNL1       -0.2751
     29 H         141.3512  141.9924  161.6106 H       1  UNL1        0.1497
     30 C         138.7956  140.9033  161.6465 C.3     1  UNL1        0.0873
     31 C         139.3048  139.8283  162.5603 C.3     1  UNL1        0.0758
     32 C         138.1845  138.9297  162.1277 C.3     1  UNL1        0.2649
     33 F         137.0640  138.0311  161.6951 F       1  UNL1       -0.2043
     34 F         138.6937  137.8548  163.0415 F       1  UNL1       -0.2043
     35 C         137.6752  140.0047  161.2139 C.3     1  UNL1        0.0758
@<TRIPOS>BOND
     1    10    11    1
     2    11    12   ar
     3    12    13   ar
     4    13    14   ar
     5    14    16    1
     6    16    17    1
     7    16    18    1
     8    14    15   ar
     9    15     4    1
    10     4     5    1
    11     5     6    1
    12     6     7    1
    13     7     2    1
    14     2     3    1
    15     2     1    1
    16    19     1    1
    17    19    26    1
    18    26    27   am
    19    27    28    2
    20    27    30    1
    21    30    31    1
    22    31    32    1
    23    32    33    1
    24    32    34    1
    25    32    35    1
    26    19    20    1
    27    20    21   ar
    28    21    22   ar
    29    22    23   ar
    30    23    24   ar
    31    24    25   ar
    32     7     8    1
    33     8     9    1
    34    15    11   ar
    35     9     4    1
    36    35    30    1
    37    25    20   ar
    38    26    29    1
@<TRIPOS>MOLECULE
*****
 35 38 0 0 0
SMALL
GASTEIGER

@<TRIPOS>ATOM
      1 C         144.2810  140.5708  162.0501 C.3     1  UNL1        0.0401
      2 C         144.6866  141.0215  163.4221 C.3     1  UNL1        0.0595
      3 C         146.0081  141.7003  163.6284 C.3     1  UNL1        0.0174
      4 C         141.9384  140.3373  166.9191 C.3     1  UNL1        0.0905
      5 C         142.4294  141.7206  166.6106 C.3     1  UNL1        0.0400
      6 C         143.3455  141.9487  165.4450 C.3     1  UNL1        0.0740
      7 N         143.7705  140.7934  164.5878 N.3     1  UNL1       -0.2738
      8 C         143.2795  139.4101  164.8963 C.3     1  UNL1        0.0740
      9 C         142.3634  139.1820  166.0620 C.3     1  UNL1        0.0400
     10 C         142.7974  140.3616  170.0674 C.3     1  UNL1        0.0738
     11 C         141.4172  140.1203  169.5319 C.ar    1  UNL1        0.1433
     12 N         140.1894  139.8479  170.3495 N.ar    1  UNL1       -0.1337
     13 N         139.0358  139.6683  169.4077 N.ar    1  UNL1       -0.1337
     14 C         139.5505  139.8298  168.0081 C.ar    1  UNL1        0.1425
     15 N         141.0223  140.1092  168.0849 N.ar    1  UNL1       -0.3039
     16 C         138.7365  139.7295  166.7523 C.3     1  UNL1        0.0588
     17 C         138.8632  140.7812  165.6903 C.3     1  UNL1        0.0080
     18 C         137.7956  138.5775  166.5583 C.3     1  UNL1        0.0080
     19 C         143.1939  141.2956  161.3134 C.3     1  UNL1        0.0954
     20 C         143.3028  141.5057  159.8322 C.ar    1  UNL1       -0.0045
     21 C         142.2883  140.8948  158.9114 C.ar    1  UNL1       -0.0027
     22 C         142.3973  141.1049  157.4302 C.ar    1  UNL1       -0.0003
     23 C         143.5207  141.9258  156.8697 C.ar    1  UNL1       -0.0000
     24 C         144.5352  142.5365  157.7905 C.ar    1  UNL1       -0.0003
     25 C         144.4262  142.3265  159.2717 C.ar    1  UNL1       -0.0027
     26 N         141.9977  141.8104  162.0579 N.am    1  UNL1       -0.3022
     27 C         141.8522  143.2803  162.3190 C.2     1  UNL1        0.2225
     28 O         142.9029  144.2355  161.8355 O.2     1  UNL1       -0.2751
     29 H         141.3081  141.1834  162.3752 H       1  UNL1        0.1497
     30 C         140.6561  143.7950  163.0634 C.3     1  UNL1        0.0873
     31 C         139.1827  143.8592  162.7890 C.3     1  UNL1        0.0758
     32 C         138.9644  144.5229  164.1163 C.3     1  UNL1        0.2649
     33 F         138.7461  145.1865  165.4437 F       1  UNL1       -0.2043
     34 F         137.4912  144.5871  163.8419 F       1  UNL1       -0.2043
     35 C         140.4377  144.4586  164.3908 C.3     1  UNL1        0.0758
@<TRIPOS>BOND
     1    10    11    1
     2    11    12   ar
     3    12    13   ar
     4    13    14   ar
     5    14    16    1
     6    16    17    1
     7    16    18    1
     8    14    15   ar
     9    15     4    1
    10     4     5    1
    11     5     6    1
    12     6     7    1
    13     7     2    1
    14     2     3    1
    15     2     1    1
    16    19     1    1
    17    19    26    1
    18    26    27   am
    19    27    28    2
    20    27    30    1
    21    30    31    1
    22    31    32    1
    23    32    33    1
    24    32    34    1
    25    32    35    1
    26    19    20    1
    27    20    21   ar
    28    21    22   ar
    29    22    23   ar
    30    23    24   ar
    31    24    25   ar
    32     7     8    1
    33     8     9    1
    34    15    11   ar
    35     9     4    1
    36    35    30    1
    37    25    20   ar
    38    26    29    1
@<TRIPOS>MOLECULE
*****
 35 38 0 0 0
SMALL
GASTEIGER

@<TRIPOS>ATOM
      1 C         144.1166  142.7032  162.5931 C.3     1  UNL1        0.0401
      2 C         143.3053  143.6173  163.4627 C.3     1  UNL1        0.0595
      3 C         143.2482  145.0853  163.1599 C.3     1  UNL1        0.0174
      4 C         141.0432  141.9556  166.9800 C.3     1  UNL1        0.0905
      5 C         140.3800  142.9336  166.0560 C.3     1  UNL1        0.0400
      6 C         141.1341  143.4875  164.8836 C.3     1  UNL1        0.0740
      7 N         142.5513  143.0634  164.6352 N.3     1  UNL1       -0.2738
      8 C         143.2144  142.0854  165.5592 C.3     1  UNL1        0.0740
      9 C         142.4604  141.5316  166.7316 C.3     1  UNL1        0.0400
     10 C         139.0740  139.3536  166.9385 C.3     1  UNL1        0.0738
     11 C         139.3840  140.2057  168.1334 C.ar    1  UNL1        0.1433
     12 N         138.8433  140.0114  169.5189 N.ar    1  UNL1       -0.1337
     13 N         139.4142  141.0873  170.3945 N.ar    1  UNL1       -0.1337
     14 C         140.3078  141.9466  169.5499 C.ar    1  UNL1        0.1425
     15 N         140.2891  141.4017  168.1525 N.ar    1  UNL1       -0.3039
     16 C         141.0837  143.1410  170.0202 C.3     1  UNL1        0.0588
     17 C         142.5433  143.0089  170.3398 C.3     1  UNL1        0.0080
     18 C         140.4001  144.4676  170.1710 C.3     1  UNL1        0.0080
     19 C         143.4296  141.7440  161.6668 C.3     1  UNL1        0.0954
     20 C         143.8761  141.6298  160.2394 C.ar    1  UNL1       -0.0045
     21 C         144.7526  142.6897  159.6406 C.ar    1  UNL1       -0.0027
     22 C         145.1991  142.5754  158.2131 C.ar    1  UNL1       -0.0003
     23 C         144.7692  141.4012  157.3845 C.ar    1  UNL1       -0.0000
     24 C         143.8929  140.3414  157.9833 C.ar    1  UNL1       -0.0003
     25 C         143.4463  140.4556  159.4108 C.ar    1  UNL1       -0.0027
     26 N         142.2960  140.8991  162.1679 N.am    1  UNL1       -0.3022
     27 C         142.5775  139.5854  162.8349 C.2     1  UNL1        0.2225
     28 O         143.9927  139.1165  163.0007 O.2     1  UNL1       -0.2751
     29 H         141.3671  141.2068  162.0591 H       1  UNL1        0.1497
     30 C         141.4440  138.7405  163.3360 C.3     1  UNL1        0.0873
     31 C         140.0514  138.4452  162.8630 C.3     1  UNL1        0.0758
     32 C         139.8408  137.5457  164.0446 C.3     1  UNL1        0.2649
     33 F         139.6302  136.6461  165.2263 F       1  UNL1       -0.2043
     34 F         138.4483  137.2504  163.5717 F       1  UNL1       -0.2043
     35 C         141.2333  137.8409  164.5176 C.3     1  UNL1        0.0758
@<TRIPOS>BOND
     1    10    11    1
     2    11    12   ar
     3    12    13   ar
     4    13    14   ar
     5    14    16    1
     6    16    17    1
     7    16    18    1
     8    14    15   ar
     9    15     4    1
    10     4     5    1
    11     5     6    1
    12     6     7    1
    13     7     2    1
    14     2     3    1
    15     2     1    1
    16    19     1    1
    17    19    26    1
    18    26    27   am
    19    27    28    2
    20    27    30    1
    21    30    31    1
    22    31    32    1
    23    32    33    1
    24    32    34    1
    25    32    35    1
    26    19    20    1
    27    20    21   ar
    28    21    22   ar
    29    22    23   ar
    30    23    24   ar
    31    24    25   ar
    32     7     8    1
    33     8     9    1
    34    15    11   ar
    35     9     4    1
    36    35    30    1
    37    25    20   ar
    38    26    29    1
@<TRIPOS>MOLECULE
*****
 35 38 0 0 0
SMALL
GASTEIGER

@<TRIPOS>ATOM
      1 C         139.5566  144.8792  163.0598 C.3     1  UNL1        0.0401
      2 C         138.9032  143.6043  163.5044 C.3     1  UNL1        0.0595
      3 C         137.6258  143.1522  162.8612 C.3     1  UNL1        0.0174
      4 C         140.7756  141.1355  166.7677 C.3     1  UNL1        0.0905
      5 C         140.1156  140.4609  165.6019 C.3     1  UNL1        0.0400
      6 C         139.4914  141.2838  164.5141 C.3     1  UNL1        0.0740
      7 N         139.5274  142.7813  164.5922 N.3     1  UNL1       -0.2738
      8 C         140.1874  143.4560  165.7580 C.3     1  UNL1        0.0740
      9 C         140.8116  142.6330  166.8458 C.3     1  UNL1        0.0400
     10 C         143.3985  139.2186  166.4579 C.3     1  UNL1        0.0738
     11 C         142.6053  139.4315  167.7131 C.ar    1  UNL1        0.1433
     12 N         142.8786  138.8007  169.0463 N.ar    1  UNL1       -0.1337
     13 N         141.8418  139.2919  170.0127 N.ar    1  UNL1       -0.1337
     14 C         140.9279  140.2263  169.2768 C.ar    1  UNL1        0.1425
     15 N         141.3998  140.3126  167.8555 N.ar    1  UNL1       -0.3039
     16 C         139.7490  140.9477  169.8597 C.3     1  UNL1        0.0588
     17 C         138.4447  140.2296  170.0407 C.3     1  UNL1        0.0080
     18 C         139.8746  142.3874  170.2618 C.3     1  UNL1        0.0080
     19 C         140.8754  144.8371  162.3465 C.3     1  UNL1        0.0954
     20 C         142.0654  144.2063  163.0069 C.ar    1  UNL1       -0.0045
     21 C         142.4075  142.7732  162.7253 C.ar    1  UNL1       -0.0027
     22 C         143.5975  142.1425  163.3857 C.ar    1  UNL1       -0.0003
     23 C         144.4455  142.9449  164.3276 C.ar    1  UNL1       -0.0000
     24 C         144.1034  144.3780  164.6091 C.ar    1  UNL1       -0.0003
     25 C         142.9134  145.0087  163.9488 C.ar    1  UNL1       -0.0027
     26 N         141.0043  145.4256  160.9728 N.am    1  UNL1       -0.3022
     27 C         140.8038  144.5601  159.7642 C.2     1  UNL1        0.2225
     28 O         140.4744  143.1061  159.9293 O.2     1  UNL1       -0.2751
     29 H         141.2205  146.3799  160.8644 H       1  UNL1        0.1497
     30 C         140.9326  145.1487  158.3906 C.3     1  UNL1        0.0873
     31 C         140.2116  146.2162  157.6220 C.3     1  UNL1        0.0758
     32 C         141.1149  145.9811  156.4479 C.3     1  UNL1        0.2649
     33 F         142.0183  145.7459  155.2737 F       1  UNL1       -0.2043
     34 F         140.3939  147.0485  155.6794 F       1  UNL1       -0.2043
     35 C         141.8360  144.9136  157.2164 C.3     1  UNL1        0.0758
@<TRIPOS>BOND
     1    10    11    1
     2    11    12   ar
     3    12    13   ar
     4    13    14   ar
     5    14    16    1
     6    16    17    1
     7    16    18    1
     8    14    15   ar
     9    15     4    1
    10     4     5    1
    11     5     6    1
    12     6     7    1
    13     7     2    1
    14     2     3    1
    15     2     1    1
    16    19     1    1
    17    19    26    1
    18    26    27   am
    19    27    28    2
    20    27    30    1
    21    30    31    1
    22    31    32    1
    23    32    33    1
    24    32    34    1
    25    32    35    1
    26    19    20    1
    27    20    21   ar
    28    21    22   ar
    29    22    23   ar
    30    23    24   ar
    31    24    25   ar
    32     7     8    1
    33     8     9    1
    34    15    11   ar
    35     9     4    1
    36    35    30    1
    37    25    20   ar
    38    26    29    1
@<TRIPOS>MOLECULE
*****
 35 38 0 0 0
SMALL
GASTEIGER

@<TRIPOS>ATOM
      1 C         144.2891  143.1285  162.6838 C.3     1  UNL1        0.0401
      2 C         143.5713  143.7977  163.8182 C.3     1  UNL1        0.0595
      3 C         143.7706  145.2625  164.0719 C.3     1  UNL1        0.0174
      4 C         140.8197  141.4105  166.4602 C.3     1  UNL1        0.0905
      5 C         140.3113  142.6362  165.7608 C.3     1  UNL1        0.0400
      6 C         141.2285  143.4319  164.8801 C.3     1  UNL1        0.0740
      7 N         142.6541  143.0019  164.6989 N.3     1  UNL1       -0.2738
      8 C         143.1625  141.7762  165.3983 C.3     1  UNL1        0.0740
      9 C         142.2453  140.9805  166.2790 C.3     1  UNL1        0.0400
     10 C         140.5593  141.6823  169.7018 C.3     1  UNL1        0.0738
     11 C         139.7828  140.7397  168.8309 C.ar    1  UNL1        0.1433
     12 N         138.7504  139.7565  169.2970 N.ar    1  UNL1       -0.1337
     13 N         138.2319  139.0239  168.0951 N.ar    1  UNL1       -0.1337
     14 C         138.9440  139.5543  166.8862 C.ar    1  UNL1        0.1425
     15 N         139.9025  140.6147  167.3409 N.ar    1  UNL1       -0.3039
     16 C         138.7344  139.1035  165.4710 C.3     1  UNL1        0.0588
     17 C         138.1313  140.0405  164.4668 C.3     1  UNL1        0.0080
     18 C         139.1278  137.7156  165.0599 C.3     1  UNL1        0.0080
     19 C         143.5082  142.4375  161.6055 C.3     1  UNL1        0.0954
     20 C         143.0886  141.0083  161.7820 C.ar    1  UNL1       -0.0045
     21 C         144.0843  139.9042  161.5827 C.ar    1  UNL1       -0.0027
     22 C         143.6647  138.4750  161.7592 C.ar    1  UNL1       -0.0003
     23 C         142.2493  138.1498  162.1349 C.ar    1  UNL1       -0.0000
     24 C         141.2537  139.2538  162.3342 C.ar    1  UNL1       -0.0003
     25 C         141.6733  140.6831  162.1577 C.ar    1  UNL1       -0.0027
     26 N         143.1469  143.1758  160.3507 N.am    1  UNL1       -0.3022
     27 C         141.8989  144.0065  160.3023 C.2     1  UNL1        0.2225
     28 O         141.0122  144.0991  161.5086 O.2     1  UNL1       -0.2751
     29 H         143.7289  143.1151  159.5590 H       1  UNL1        0.1497
     30 C         141.5376  144.7448  159.0475 C.3     1  UNL1        0.0873
     31 C         142.2114  144.9903  157.7300 C.3     1  UNL1        0.0758
     32 C         141.0267  145.7888  157.2729 C.3     1  UNL1        0.2649
     33 F         139.8420  146.5873  156.8160 F       1  UNL1       -0.2043
     34 F         141.7004  146.0343  155.9555 F       1  UNL1       -0.2043
     35 C         140.3530  145.5433  158.5904 C.3     1  UNL1        0.0758
@<TRIPOS>BOND
     1    10    11    1
     2    11    12   ar
     3    12    13   ar
     4    13    14   ar
     5    14    16    1
     6    16    17    1
     7    16    18    1
     8    14    15   ar
     9    15     4    1
    10     4     5    1
    11     5     6    1
    12     6     7    1
    13     7     2    1
    14     2     3    1
    15     2     1    1
    16    19     1    1
    17    19    26    1
    18    26    27   am
    19    27    28    2
    20    27    30    1
    21    30    31    1
    22    31    32    1
    23    32    33    1
    24    32    34    1
    25    32    35    1
    26    19    20    1
    27    20    21   ar
    28    21    22   ar
    29    22    23   ar
    30    23    24   ar
    31    24    25   ar
    32     7     8    1
    33     8     9    1
    34    15    11   ar
    35     9     4    1
    36    35    30    1
    37    25    20   ar
    38    26    29    1
@<TRIPOS>MOLECULE
*****
 35 38 0 0 0
SMALL
GASTEIGER

@<TRIPOS>ATOM
      1 C         138.2326  142.6523  162.1166 C.3     1  UNL1        0.0401
      2 C         138.1876  143.1452  163.5326 C.3     1  UNL1        0.0595
      3 C         137.3730  144.3559  163.8798 C.3     1  UNL1        0.0174
      4 C         140.4969  140.9919  166.7389 C.3     1  UNL1        0.0905
      5 C         140.7038  142.4619  166.5246 C.3     1  UNL1        0.0400
      6 C         139.9341  143.1797  165.4558 C.3     1  UNL1        0.0740
      7 N         138.9574  142.4274  164.6014 N.3     1  UNL1       -0.2738
      8 C         138.7504  140.9573  164.8158 C.3     1  UNL1        0.0740
      9 C         139.5201  140.2395  165.8845 C.3     1  UNL1        0.0400
     10 C         143.2064  139.2280  166.2951 C.3     1  UNL1        0.0738
     11 C         142.5120  139.4633  167.6037 C.ar    1  UNL1        0.1433
     12 N         142.9412  138.9292  168.9381 N.ar    1  UNL1       -0.1337
     13 N         141.9609  139.4098  169.9668 N.ar    1  UNL1       -0.1337
     14 C         140.9260  140.2409  169.2682 C.ar    1  UNL1        0.1425
     15 N         141.2666  140.2740  167.8077 N.ar    1  UNL1       -0.3039
     16 C         139.7559  140.9198  169.9163 C.3     1  UNL1        0.0588
     17 C         139.8857  142.3307  170.4087 C.3     1  UNL1        0.0080
     18 C         138.4560  140.1878  170.0720 C.3     1  UNL1        0.0080
     19 C         139.4535  142.8897  161.2782 C.3     1  UNL1        0.0954
     20 C         139.3267  143.0234  159.7896 C.ar    1  UNL1       -0.0045
     21 C         140.0648  144.1124  159.0689 C.ar    1  UNL1       -0.0027
     22 C         139.9380  144.2462  157.5802 C.ar    1  UNL1       -0.0003
     23 C         139.0731  143.2910  156.8123 C.ar    1  UNL1       -0.0000
     24 C         138.3350  142.2021  157.5331 C.ar    1  UNL1       -0.0003
     25 C         138.4618  142.0683  159.0217 C.ar    1  UNL1       -0.0027
     26 N         140.8013  142.9933  161.9285 N.am    1  UNL1       -0.3022
     27 C         141.5471  141.7493  162.3110 C.2     1  UNL1        0.2225
     28 O         140.9451  140.4017  162.0433 O.2     1  UNL1       -0.2751
     29 H         141.1964  143.8777  162.1042 H       1  UNL1        0.1497
     30 C         142.8948  141.8530  162.9612 C.3     1  UNL1        0.0873
     31 C         144.2027  141.1337  162.8120 C.3     1  UNL1        0.0758
     32 C         144.8009  141.9995  163.8807 C.3     1  UNL1        0.2649
     33 F         145.3991  142.8655  164.9495 F       1  UNL1       -0.2043
     34 F         146.1087  141.2803  163.7315 F       1  UNL1       -0.2043
     35 C         143.4931  142.7189  164.0300 C.3     1  UNL1        0.0758
@<TRIPOS>BOND
     1    10    11    1
     2    11    12   ar
     3    12    13   ar
     4    13    14   ar
     5    14    16    1
     6    16    17    1
     7    16    18    1
     8    14    15   ar
     9    15     4    1
    10     4     5    1
    11     5     6    1
    12     6     7    1
    13     7     2    1
    14     2     3    1
    15     2     1    1
    16    19     1    1
    17    19    26    1
    18    26    27   am
    19    27    28    2
    20    27    30    1
    21    30    31    1
    22    31    32    1
    23    32    33    1
    24    32    34    1
    25    32    35    1
    26    19    20    1
    27    20    21   ar
    28    21    22   ar
    29    22    23   ar
    30    23    24   ar
    31    24    25   ar
    32     7     8    1
    33     8     9    1
    34    15    11   ar
    35     9     4    1
    36    35    30    1
    37    25    20   ar
    38    26    29    1
@<TRIPOS>MOLECULE
*****
 35 38 0 0 0
SMALL
GASTEIGER

@<TRIPOS>ATOM
      1 C         142.8953  142.3327  162.7707 C.3     1  UNL1        0.0401
      2 C         142.3997  143.4115  163.6874 C.3     1  UNL1        0.0595
      3 C         142.2286  144.8109  163.1751 C.3     1  UNL1        0.0174
      4 C         141.4261  142.4500  167.9743 C.3     1  UNL1        0.0905
      5 C         140.3372  142.8782  167.0358 C.3     1  UNL1        0.0400
      6 C         140.6617  143.1987  165.6068 C.3     1  UNL1        0.0740
      7 N         142.0752  143.0910  165.1164 N.3     1  UNL1       -0.2738
      8 C         143.1641  142.6628  166.0549 C.3     1  UNL1        0.0740
      9 C         142.8396  142.3423  167.4838 C.3     1  UNL1        0.0400
     10 C         140.2795  144.5456  170.1976 C.3     1  UNL1        0.0738
     11 C         140.5746  143.0927  170.4252 C.ar    1  UNL1        0.1433
     12 N         140.3945  142.3479  171.7147 N.ar    1  UNL1       -0.1337
     13 N         140.8102  140.9243  171.4898 N.ar    1  UNL1       -0.1337
     14 C         141.2472  140.7893  170.0612 C.ar    1  UNL1        0.1425
     15 N         141.1016  142.1294  169.4033 N.ar    1  UNL1       -0.3039
     16 C         141.7429  139.5344  169.4057 C.3     1  UNL1        0.0588
     17 C         142.6519  138.6056  170.1547 C.3     1  UNL1        0.0080
     18 C         141.3295  139.2083  168.0012 C.3     1  UNL1        0.0080
     19 C         141.9601  141.2566  162.3043 C.3     1  UNL1        0.0954
     20 C         141.6931  141.0782  160.8390 C.ar    1  UNL1       -0.0045
     21 C         141.7910  142.2523  159.9105 C.ar    1  UNL1       -0.0027
     22 C         141.5240  142.0739  158.4452 C.ar    1  UNL1       -0.0003
     23 C         141.1592  140.7215  157.9086 C.ar    1  UNL1       -0.0000
     24 C         141.0613  139.5475  158.8371 C.ar    1  UNL1       -0.0003
     25 C         141.3283  139.7259  160.3023 C.ar    1  UNL1       -0.0027
     26 N         141.2919  140.3589  163.3031 N.am    1  UNL1       -0.3022
     27 C         139.8263  140.5098  163.5846 C.2     1  UNL1        0.2225
     28 O         139.0289  141.5585  162.8673 O.2     1  UNL1       -0.2751
     29 H         141.8152  139.6707  163.7739 H       1  UNL1        0.1497
     30 C         139.1581  139.6122  164.5834 C.3     1  UNL1        0.0873
     31 C         139.1297  138.1324  164.8274 C.3     1  UNL1        0.0758
     32 C         138.2132  138.3426  165.9960 C.3     1  UNL1        0.2649
     33 F         137.2967  138.5529  167.1646 F       1  UNL1       -0.2043
     34 F         138.1847  136.8629  166.2399 F       1  UNL1       -0.2043
     35 C         138.2416  139.8224  165.7521 C.3     1  UNL1        0.0758
@<TRIPOS>BOND
     1    10    11    1
     2    11    12   ar
     3    12    13   ar
     4    13    14   ar
     5    14    16    1
     6    16    17    1
     7    16    18    1
     8    14    15   ar
     9    15     4    1
    10     4     5    1
    11     5     6    1
    12     6     7    1
    13     7     2    1
    14     2     3    1
    15     2     1    1
    16    19     1    1
    17    19    26    1
    18    26    27   am
    19    27    28    2
    20    27    30    1
    21    30    31    1
    22    31    32    1
    23    32    33    1
    24    32    34    1
    25    32    35    1
    26    19    20    1
    27    20    21   ar
    28    21    22   ar
    29    22    23   ar
    30    23    24   ar
    31    24    25   ar
    32     7     8    1
    33     8     9    1
    34    15    11   ar
    35     9     4    1
    36    35    30    1
    37    25    20   ar
    38    26    29    1
@<TRIPOS>MOLECULE
*****
 35 38 0 0 0
SMALL
GASTEIGER

@<TRIPOS>ATOM
      1 C         139.0065  139.6636  166.6572 C.3     1  UNL1        0.0401
      2 C         138.9126  139.0109  165.3099 C.3     1  UNL1        0.0595
      3 C         138.7570  137.5226  165.2069 C.3     1  UNL1        0.0174
      4 C         139.0971  141.5178  161.5775 C.3     1  UNL1        0.0905
      5 C         138.1062  141.8476  162.6542 C.3     1  UNL1        0.0400
      6 C         138.0447  141.0119  163.8983 C.3     1  UNL1        0.0740
      7 N         138.9741  139.8465  164.0657 N.3     1  UNL1       -0.2738
      8 C         139.9650  139.5167  162.9890 C.3     1  UNL1        0.0740
      9 C         140.0265  140.3524  161.7449 C.3     1  UNL1        0.0400
     10 C         137.9135  140.6909  158.6508 C.3     1  UNL1        0.0738
     11 C         138.6146  141.9733  158.9881 C.ar    1  UNL1        0.1433
     12 N         138.8948  143.1009  158.0393 N.ar    1  UNL1       -0.1337
     13 N         139.6120  144.1779  158.7981 N.ar    1  UNL1       -0.1337
     14 C         139.7751  143.7159  160.2159 C.ar    1  UNL1        0.1425
     15 N         139.1587  142.3534  160.3333 N.ar    1  UNL1       -0.3039
     16 C         140.4382  144.4819  161.3220 C.3     1  UNL1        0.0588
     17 C         139.7051  145.5975  162.0060 C.3     1  UNL1        0.0080
     18 C         141.8344  144.1323  161.7442 C.3     1  UNL1        0.0080
     19 C         140.1686  140.5558  166.9789 C.3     1  UNL1        0.0954
     20 C         140.3538  141.0722  168.3750 C.ar    1  UNL1       -0.0045
     21 C         140.4640  142.5479  168.6203 C.ar    1  UNL1       -0.0027
     22 C         140.6491  143.0643  170.0164 C.ar    1  UNL1       -0.0003
     23 C         140.7240  142.1050  171.1671 C.ar    1  UNL1       -0.0000
     24 C         140.6138  140.6294  170.9218 C.ar    1  UNL1       -0.0003
     25 C         140.4287  140.1129  169.5257 C.ar    1  UNL1       -0.0027
     26 N         141.1457  140.9315  165.9045 N.am    1  UNL1       -0.3022
     27 C         142.4315  140.1725  165.7612 C.2     1  UNL1        0.2225
     28 O         142.7403  139.0376  166.6922 O.2     1  UNL1       -0.2751
     29 H         140.9431  141.6764  165.2934 H       1  UNL1        0.1497
     30 C         143.4085  140.5482  164.6868 C.3     1  UNL1        0.0873
     31 C         143.6235  140.1414  163.2592 C.3     1  UNL1        0.0758
     32 C         144.7901  141.0797  163.1675 C.3     1  UNL1        0.2649
     33 F         145.9568  142.0180  163.0758 F       1  UNL1       -0.2043
     34 F         145.0052  140.6729  161.7399 F       1  UNL1       -0.2043
     35 C         144.5751  141.4866  164.5951 C.3     1  UNL1        0.0758
@<TRIPOS>BOND
     1    10    11    1
     2    11    12   ar
     3    12    13   ar
     4    13    14   ar
     5    14    16    1
     6    16    17    1
     7    16    18    1
     8    14    15   ar
     9    15     4    1
    10     4     5    1
    11     5     6    1
    12     6     7    1
    13     7     2    1
    14     2     3    1
    15     2     1    1
    16    19     1    1
    17    19    26    1
    18    26    27   am
    19    27    28    2
    20    27    30    1
    21    30    31    1
    22    31    32    1
    23    32    33    1
    24    32    34    1
    25    32    35    1
    26    19    20    1
    27    20    21   ar
    28    21    22   ar
    29    22    23   ar
    30    23    24   ar
    31    24    25   ar
    32     7     8    1
    33     8     9    1
    34    15    11   ar
    35     9     4    1
    36    35    30    1
    37    25    20   ar
    38    26    29    1
