@<TRIPOS>MOLECULE
*****
 12 13 0 0 0
SMALL
GASTEIGER

@<TRIPOS>ATOM
      1 CA        140.1173  141.6037  169.5919 C.ar    1  UNL1        0.0739
      2 C         139.1239  140.5021  169.8149 C.ar    1  UNL1        0.0571
      3 C         138.8352  139.8628  168.4890 C.ar    1  UNL1        0.1624
      4 O         138.0429  138.7869  167.8074 O.2     1  UNL1       -0.4489
      5 C         138.3681  138.8285  166.3437 C.ar    1  UNL1        0.1812
      6 C         139.3615  139.9301  166.1206 C.ar    1  UNL1        0.0607
      7 C         139.6502  140.5693  167.4465 C.ar    1  UNL1        0.0949
      8 N         140.4426  141.6452  168.1281 N.ar    1  UNL1       -0.3497
      9 H         141.0665  142.2691  167.6915 H       1  UNL1        0.1661
     10 O         141.4398  143.7402  170.2521 O.co2   1  UNL1       -0.5431
     11 C         140.6856  142.5053  170.6473 C.2     1  UNL1        0.0885
     12 OXT       140.4998  142.1721  172.0980 O.co2   1  UNL1       -0.5431
@<TRIPOS>UNITY_ATOM_ATTR
10 1
charge -1
@<TRIPOS>BOND
     1    10    11   ar
     2    11    12   ar
     3    11     1    1
     4     1     2   ar
     5     2     3   ar
     6     3     4   ar
     7     4     5   ar
     8     5     6   ar
     9     6     7   ar
    10     7     8   ar
    11     8     1   ar
    12     7     3   ar
    13     8     9    1
@<TRIPOS>MOLECULE
*****
 12 13 0 0 0
SMALL
GASTEIGER

@<TRIPOS>ATOM
      1 CA        140.0062  141.1086  169.3659 C.ar    1  UNL1        0.0739
      2 C         140.3759  141.5170  167.9707 C.ar    1  UNL1        0.0571
      3 C         139.6426  140.6221  167.0160 C.ar    1  UNL1        0.1624
      4 O         139.4180  140.3214  165.5637 O.2     1  UNL1       -0.4489
      5 C         138.4562  139.1741  165.4713 C.ar    1  UNL1        0.1812
      6 C         138.0864  138.7656  166.8664 C.ar    1  UNL1        0.0607
      7 C         138.8197  139.6605  167.8211 C.ar    1  UNL1        0.0949
      8 N         139.0444  139.9612  169.2734 N.ar    1  UNL1       -0.3497
      9 H         138.6328  139.4884  170.0326 H       1  UNL1        0.1661
     10 O         140.5872  140.9275  171.8916 O.co2   1  UNL1       -0.5431
     11 C         140.5098  141.7371  170.6312 C.2     1  UNL1        0.0885
     12 OXT       140.9361  143.1752  170.6363 O.co2   1  UNL1       -0.5431
@<TRIPOS>UNITY_ATOM_ATTR
10 1
charge -1
@<TRIPOS>BOND
     1    10    11   ar
     2    11    12   ar
     3    11     1    1
     4     1     2   ar
     5     2     3   ar
     6     3     4   ar
     7     4     5   ar
     8     5     6   ar
     9     6     7   ar
    10     7     8   ar
    11     8     1   ar
    12     7     3   ar
    13     8     9    1
@<TRIPOS>MOLECULE
*****
 12 13 0 0 0
SMALL
GASTEIGER

@<TRIPOS>ATOM
      1 CA        138.2132  138.7357  165.7650 C.ar    1  UNL1        0.0739
      2 C         138.8797  137.6659  164.9517 C.ar    1  UNL1        0.0571
      3 C         139.0121  138.1683  163.5445 C.ar    1  UNL1        0.1624
      4 O         139.5059  137.8175  162.1722 O.2     1  UNL1       -0.4489
      5 C         139.2263  138.9810  161.2677 C.ar    1  UNL1        0.1812
      6 C         138.5598  140.0508  162.0809 C.ar    1  UNL1        0.0607
      7 C         138.4274  139.5484  163.4881 C.ar    1  UNL1        0.0949
      8 N         137.9336  139.8992  164.8604 N.ar    1  UNL1       -0.3497
      9 H         137.5019  140.7445  165.1215 H       1  UNL1        0.1661
     10 O         136.7466  137.7966  167.6930 O.co2   1  UNL1       -0.5431
     11 C         137.8840  138.6560  167.2262 C.2     1  UNL1        0.0885
     12 OXT       138.6922  139.4356  168.2208 O.co2   1  UNL1       -0.5431
@<TRIPOS>UNITY_ATOM_ATTR
10 1
charge -1
@<TRIPOS>BOND
     1    10    11   ar
     2    11    12   ar
     3    11     1    1
     4     1     2   ar
     5     2     3   ar
     6     3     4   ar
     7     4     5   ar
     8     5     6   ar
     9     6     7   ar
    10     7     8   ar
    11     8     1   ar
    12     7     3   ar
    13     8     9    1
@<TRIPOS>MOLECULE
*****
 12 13 0 0 0
SMALL
GASTEIGER

@<TRIPOS>ATOM
      1 CA        139.3663  140.1902  168.6354 C.ar    1  UNL1        0.0739
      2 C         140.2988  140.7722  167.6147 C.ar    1  UNL1        0.0571
      3 C         139.9932  140.1357  166.2913 C.ar    1  UNL1        0.1624
      4 O         140.3806  140.1021  164.8426 O.2     1  UNL1       -0.4489
      5 C         139.4988  139.1058  164.1500 C.ar    1  UNL1        0.1812
      6 C         138.5663  138.5237  165.1706 C.ar    1  UNL1        0.0607
      7 C         138.8719  139.1602  166.4941 C.ar    1  UNL1        0.0949
      8 N         138.4844  139.1939  167.9428 N.ar    1  UNL1       -0.3497
      9 H         137.7758  138.6564  168.3649 H       1  UNL1        0.1661
     10 O         139.1974  141.9765  170.5143 O.co2   1  UNL1       -0.5431
     11 C         139.3233  140.5425  170.0928 C.2     1  UNL1        0.0885
     12 OXT       139.4063  139.4608  171.1287 O.co2   1  UNL1       -0.5431
@<TRIPOS>UNITY_ATOM_ATTR
10 1
charge -1
@<TRIPOS>BOND
     1    10    11   ar
     2    11    12   ar
     3    11     1    1
     4     1     2   ar
     5     2     3   ar
     6     3     4   ar
     7     4     5   ar
     8     5     6   ar
     9     6     7   ar
    10     7     8   ar
    11     8     1   ar
    12     7     3   ar
    13     8     9    1
@<TRIPOS>MOLECULE
*****
 12 13 0 0 0
SMALL
GASTEIGER

@<TRIPOS>ATOM
      1 CA        138.0355  141.7457  163.1796 C.ar    1  UNL1        0.0739
      2 C         138.5189  140.4501  162.5983 C.ar    1  UNL1        0.0571
      3 C         138.5629  139.4348  163.7015 C.ar    1  UNL1        0.1624
      4 O         138.8889  138.0066  164.0241 O.2     1  UNL1       -0.4489
      5 C         138.6343  137.7920  165.4866 C.ar    1  UNL1        0.1812
      6 C         138.1509  139.0876  166.0680 C.ar    1  UNL1        0.0607
      7 C         138.1068  140.1029  164.9647 C.ar    1  UNL1        0.0949
      8 N         137.7809  141.5311  164.6422 N.ar    1  UNL1       -0.3497
      9 H         137.4567  142.2086  165.2787 H       1  UNL1        0.1661
     10 O         137.9696  143.0536  160.9357 O.co2   1  UNL1       -0.5431
     11 C         137.8410  143.0303  162.4300 C.2     1  UNL1        0.0885
     12 OXT       137.5178  144.2917  163.1747 O.co2   1  UNL1       -0.5431
@<TRIPOS>UNITY_ATOM_ATTR
10 1
charge -1
@<TRIPOS>BOND
     1    10    11   ar
     2    11    12   ar
     3    11     1    1
     4     1     2   ar
     5     2     3   ar
     6     3     4   ar
     7     4     5   ar
     8     5     6   ar
     9     6     7   ar
    10     7     8   ar
    11     8     1   ar
    12     7     3   ar
    13     8     9    1
@<TRIPOS>MOLECULE
*****
 12 13 0 0 0
SMALL
GASTEIGER

@<TRIPOS>ATOM
      1 CA        154.5239  134.2200  163.9770 C.ar    1  UNL1        0.0739
      2 C         154.6094  133.5098  162.6585 C.ar    1  UNL1        0.0571
      3 C         154.7496  132.0414  162.9310 C.ar    1  UNL1        0.1624
      4 O         154.8890  130.6951  162.2846 O.2     1  UNL1       -0.4489
      5 C         154.9765  129.6657  163.3721 C.ar    1  UNL1        0.1812
      6 C         154.8911  130.3757  164.6906 C.ar    1  UNL1        0.0607
      7 C         154.7508  131.8441  164.4180 C.ar    1  UNL1        0.0949
      8 N         154.6114  133.1904  165.0645 N.ar    1  UNL1       -0.3497
      9 H         154.5823  133.3673  166.0325 H       1  UNL1        0.1661
     10 O         153.6308  136.5200  163.1634 O.co2   1  UNL1       -0.5431
     11 C         154.3769  135.6997  164.1735 C.2     1  UNL1        0.0885
     12 OXT       154.9760  136.3592  165.3803 O.co2   1  UNL1       -0.5431
@<TRIPOS>UNITY_ATOM_ATTR
10 1
charge -1
@<TRIPOS>BOND
     1    10    11   ar
     2    11    12   ar
     3    11     1    1
     4     1     2   ar
     5     2     3   ar
     6     3     4   ar
     7     4     5   ar
     8     5     6   ar
     9     6     7   ar
    10     7     8   ar
    11     8     1   ar
    12     7     3   ar
    13     8     9    1
@<TRIPOS>MOLECULE
*****
 12 13 0 0 0
SMALL
GASTEIGER

@<TRIPOS>ATOM
      1 CA        141.3270  140.8397  169.5248 C.ar    1  UNL1        0.0739
      2 C         142.1678  139.6094  169.6964 C.ar    1  UNL1        0.0571
      3 C         142.7029  139.2220  168.3496 C.ar    1  UNL1        0.1624
      4 O         143.5532  138.2223  167.6234 O.2     1  UNL1       -0.4489
      5 C         143.5686  138.5953  166.1706 C.ar    1  UNL1        0.1812
      6 C         142.7278  139.8256  165.9990 C.ar    1  UNL1        0.0607
      7 C         142.1928  140.2130  167.3457 C.ar    1  UNL1        0.0949
      8 N         141.3425  141.2128  168.0719 N.ar    1  UNL1       -0.3497
      9 H         140.8764  141.9792  167.6663 H       1  UNL1        0.1661
     10 O         141.3592  142.1314  171.7787 O.co2   1  UNL1       -0.5431
     11 C         140.5988  141.5689  170.6146 C.2     1  UNL1        0.0885
     12 OXT       139.1099  141.7358  170.5403 O.co2   1  UNL1       -0.5431
@<TRIPOS>UNITY_ATOM_ATTR
10 1
charge -1
@<TRIPOS>BOND
     1    10    11   ar
     2    11    12   ar
     3    11     1    1
     4     1     2   ar
     5     2     3   ar
     6     3     4   ar
     7     4     5   ar
     8     5     6   ar
     9     6     7   ar
    10     7     8   ar
    11     8     1   ar
    12     7     3   ar
    13     8     9    1
@<TRIPOS>MOLECULE
*****
 12 13 0 0 0
SMALL
GASTEIGER

@<TRIPOS>ATOM
      1 CA        154.5742  132.6417  163.3720 C.ar    1  UNL1        0.0739
      2 C         154.6517  134.0510  162.8640 C.ar    1  UNL1        0.0571
      3 C         154.6333  134.9722  164.0476 C.ar    1  UNL1        0.1624
      4 O         154.6698  136.4124  164.4652 O.2     1  UNL1       -0.4489
      5 C         154.6033  136.4626  165.9628 C.ar    1  UNL1        0.1812
      6 C         154.5257  135.0534  166.4709 C.ar    1  UNL1        0.0607
      7 C         154.5442  134.1322  165.2873 C.ar    1  UNL1        0.0949
      8 N         154.5077  132.6920  164.8697 N.ar    1  UNL1       -0.3497
      9 H         154.4502  131.9159  165.4728 H       1  UNL1        0.1661
     10 O         155.7310  130.4580  162.5704 O.co2   1  UNL1       -0.5431
     11 C         154.5647  131.4003  162.5302 C.2     1  UNL1        0.0885
     12 OXT       153.3888  131.1011  161.6482 O.co2   1  UNL1       -0.5431
@<TRIPOS>UNITY_ATOM_ATTR
10 1
charge -1
@<TRIPOS>BOND
     1    10    11   ar
     2    11    12   ar
     3    11     1    1
     4     1     2   ar
     5     2     3   ar
     6     3     4   ar
     7     4     5   ar
     8     5     6   ar
     9     6     7   ar
    10     7     8   ar
    11     8     1   ar
    12     7     3   ar
    13     8     9    1
@<TRIPOS>MOLECULE
*****
 12 13 0 0 0
SMALL
GASTEIGER

@<TRIPOS>ATOM
      1 CA        140.8653  141.5850  169.5653 C.ar    1  UNL1        0.0739
      2 C         139.9327  141.0949  168.4975 C.ar    1  UNL1        0.0571
      3 C         140.7237  140.2507  167.5428 C.ar    1  UNL1        0.1624
      4 O         140.6362  139.4261  166.2929 O.2     1  UNL1       -0.4489
      5 C         142.0036  138.8848  165.9980 C.ar    1  UNL1        0.1812
      6 C         142.9363  139.3748  167.0657 C.ar    1  UNL1        0.0607
      7 C         142.1453  140.2190  168.0205 C.ar    1  UNL1        0.0949
      8 N         142.2329  141.0436  169.2704 N.ar    1  UNL1       -0.3497
      9 H         143.0452  141.2018  169.8036 H       1  UNL1        0.1661
     10 O         139.7220  143.7262  170.4914 O.co2   1  UNL1       -0.5431
     11 C         140.4955  142.4623  170.7243 C.2     1  UNL1        0.0885
     12 OXT       140.8991  142.0758  172.1164 O.co2   1  UNL1       -0.5431
@<TRIPOS>UNITY_ATOM_ATTR
10 1
charge -1
@<TRIPOS>BOND
     1    10    11   ar
     2    11    12   ar
     3    11     1    1
     4     1     2   ar
     5     2     3   ar
     6     3     4   ar
     7     4     5   ar
     8     5     6   ar
     9     6     7   ar
    10     7     8   ar
    11     8     1   ar
    12     7     3   ar
    13     8     9    1
