@<TRIPOS>MOLECULE
*****
 31 35 0 0 0
SMALL
GASTEIGER

@<TRIPOS>ATOM
      1 O         143.0062  144.7421  162.0829 O.2     1  UNL1       -0.2866
      2 C         142.5777  143.7483  163.1215 C.2     1  UNL1        0.1950
      3 C         143.4989  142.6325  163.5173 C.ar    1  UNL1        0.0353
      4 C         144.8486  142.5106  162.8744 C.ar    1  UNL1        0.0029
      5 C         145.7698  141.3949  163.2701 C.ar    1  UNL1        0.0001
      6 C         145.3412  140.4011  164.3087 C.ar    1  UNL1       -0.0003
      7 C         143.9915  140.5230  164.9516 C.ar    1  UNL1       -0.0039
      8 C         143.0704  141.6387  164.5559 C.ar    1  UNL1       -0.0153
      9 C         141.7205  141.7607  165.1988 C.3     1  UNL1        0.0462
     10 C         140.7994  142.8764  164.8030 C.ar    1  UNL1       -0.0153
     11 C         139.4496  142.9983  165.4459 C.ar    1  UNL1       -0.0039
     12 C         138.5284  144.1140  165.0502 C.ar    1  UNL1       -0.0003
     13 C         138.9570  145.1078  164.0116 C.ar    1  UNL1        0.0001
     14 C         140.3067  144.9859  163.3687 C.ar    1  UNL1        0.0029
     15 C         141.2279  143.8702  163.7644 C.ar    1  UNL1        0.0353
     16 C         142.2350  140.5400  165.9027 C.3     1  UNL1        0.0365
     17 C         142.6025  140.6109  167.3552 C.ar    1  UNL1        0.0010
     18 C         142.9674  141.9281  167.9731 C.ar    1  UNL1        0.0199
     19 C         143.3349  141.9988  169.4257 C.ar    1  UNL1        0.1219
     20 N         143.3375  140.7525  170.2603 N.ar    1  UNL1       -0.1464
     21 N         142.9725  139.4353  169.6424 N.ar    1  UNL1       -0.1467
     22 C         142.6051  139.3645  168.1898 C.ar    1  UNL1        0.1179
     23 C         140.5494  141.4587  166.0861 C.3     1  UNL1        0.0394
     24 C         139.7504  140.2071  165.8735 C.ar    1  UNL1        0.0364
     25 C         139.0275  139.5740  167.0253 C.ar    1  UNL1        0.1574
     26 F         139.1037  140.1926  168.3897 F       1  UNL1       -0.2028
     27 C         138.2285  138.3225  166.8126 C.ar    1  UNL1        0.1282
     28 N         138.1524  137.7040  165.4481 N.ar    1  UNL1       -0.2376
     29 C         138.8753  138.3371  164.2964 C.ar    1  UNL1        0.1282
     30 C         139.6743  139.5887  164.5091 C.ar    1  UNL1        0.1574
     31 F         140.3972  140.2217  163.3572 F       1  UNL1       -0.2028
@<TRIPOS>BOND
     1     1     2    2
     2     2     3    1
     3     3     4   ar
     4     4     5   ar
     5     5     6   ar
     6     6     7   ar
     7     7     8   ar
     8     8     9    1
     9     9    16    1
    10    16    17    1
    11    17    18   ar
    12    18    19   ar
    13    19    20   ar
    14    20    21   ar
    15    21    22   ar
    16     9    23    1
    17    23    24    1
    18    24    25   ar
    19    25    26    1
    20    25    27   ar
    21    27    28   ar
    22    28    29   ar
    23    29    30   ar
    24    30    31    1
    25     9    10    1
    26    10    11   ar
    27    11    12   ar
    28    12    13   ar
    29    13    14   ar
    30    14    15   ar
    31    15     2    1
    32     8     3   ar
    33    22    17   ar
    34    30    24   ar
    35    15    10   ar
@<TRIPOS>MOLECULE
*****
 31 35 0 0 0
SMALL
GASTEIGER

@<TRIPOS>ATOM
      1 O         139.6868  139.5097  170.3109 O.2     1  UNL1       -0.2866
      2 C         140.2627  140.1397  169.0775 C.2     1  UNL1        0.1950
      3 C         139.6052  139.9216  167.7470 C.ar    1  UNL1        0.0353
      4 C         138.3717  139.0735  167.6500 C.ar    1  UNL1        0.0029
      5 C         137.7142  138.8555  166.3196 C.ar    1  UNL1        0.0001
      6 C         138.2902  139.4854  165.0861 C.ar    1  UNL1       -0.0003
      7 C         139.5236  140.3335  165.1831 C.ar    1  UNL1       -0.0039
      8 C         140.1811  140.5515  166.5135 C.ar    1  UNL1       -0.0153
      9 C         141.4146  141.3996  166.6105 C.3     1  UNL1        0.0462
     10 C         142.0721  141.6177  167.9409 C.ar    1  UNL1       -0.0153
     11 C         143.3056  142.4657  168.0380 C.ar    1  UNL1       -0.0039
     12 C         143.9631  142.6838  169.3684 C.ar    1  UNL1       -0.0003
     13 C         143.3872  142.0538  170.6019 C.ar    1  UNL1        0.0001
     14 C         142.1537  141.2058  170.5049 C.ar    1  UNL1        0.0029
     15 C         141.4962  140.9877  169.1744 C.ar    1  UNL1        0.0353
     16 C         141.1540  141.4865  165.1358 C.3     1  UNL1        0.0365
     17 C         140.5114  142.7129  164.5588 C.ar    1  UNL1        0.0010
     18 C         139.7325  143.6391  165.4451 C.ar    1  UNL1        0.0199
     19 C         139.0899  144.8655  164.8679 C.ar    1  UNL1        0.1219
     20 N         139.2261  145.1656  163.4046 N.ar    1  UNL1       -0.1464
     21 N         140.0049  144.2393  162.5183 N.ar    1  UNL1       -0.1467
     22 C         140.6476  143.0130  163.0955 C.ar    1  UNL1        0.1179
     23 C         142.5576  142.2778  166.1953 C.3     1  UNL1        0.0394
     24 C         143.5488  141.7893  165.1811 C.ar    1  UNL1        0.0364
     25 C         144.1546  142.7499  164.2012 C.ar    1  UNL1        0.1574
     26 F         143.7691  144.1991  164.2356 F       1  UNL1       -0.2028
     27 C         145.1459  142.2613  163.1870 C.ar    1  UNL1        0.1282
     28 N         145.5314  140.8121  163.1527 N.ar    1  UNL1       -0.2376
     29 C         144.9256  139.8515  164.1326 C.ar    1  UNL1        0.1282
     30 C         143.9343  140.3401  165.1468 C.ar    1  UNL1        0.1574
     31 F         143.3285  139.3794  166.1267 F       1  UNL1       -0.2028
@<TRIPOS>BOND
     1     1     2    2
     2     2     3    1
     3     3     4   ar
     4     4     5   ar
     5     5     6   ar
     6     6     7   ar
     7     7     8   ar
     8     8     9    1
     9     9    16    1
    10    16    17    1
    11    17    18   ar
    12    18    19   ar
    13    19    20   ar
    14    20    21   ar
    15    21    22   ar
    16     9    23    1
    17    23    24    1
    18    24    25   ar
    19    25    26    1
    20    25    27   ar
    21    27    28   ar
    22    28    29   ar
    23    29    30   ar
    24    30    31    1
    25     9    10    1
    26    10    11   ar
    27    11    12   ar
    28    12    13   ar
    29    13    14   ar
    30    14    15   ar
    31    15     2    1
    32     8     3   ar
    33    22    17   ar
    34    30    24   ar
    35    15    10   ar
@<TRIPOS>MOLECULE
*****
 31 35 0 0 0
SMALL
GASTEIGER

@<TRIPOS>ATOM
      1 O         143.8500  142.5649  168.9964 O.2     1  UNL1       -0.2866
      2 C         142.9105  142.2072  167.8831 C.2     1  UNL1        0.1950
      3 C         143.2180  142.6301  166.4772 C.ar    1  UNL1        0.0353
      4 C         144.4650  143.4106  166.1845 C.ar    1  UNL1        0.0029
      5 C         144.7725  143.8335  164.7787 C.ar    1  UNL1        0.0001
      6 C         143.8329  143.4758  163.6654 C.ar    1  UNL1       -0.0003
      7 C         142.5859  142.6953  163.9580 C.ar    1  UNL1       -0.0039
      8 C         142.2785  142.2724  165.3639 C.ar    1  UNL1       -0.0153
      9 C         141.0314  141.4918  165.6566 C.3     1  UNL1        0.0462
     10 C         140.7239  141.0690  167.0625 C.ar    1  UNL1       -0.0153
     11 C         139.4768  140.2884  167.3552 C.ar    1  UNL1       -0.0039
     12 C         139.1694  139.8655  168.7611 C.ar    1  UNL1       -0.0003
     13 C         140.1089  140.2232  169.8744 C.ar    1  UNL1        0.0001
     14 C         141.3559  141.0037  169.5817 C.ar    1  UNL1        0.0029
     15 C         141.6634  141.4266  168.1758 C.ar    1  UNL1        0.0353
     16 C         140.8886  141.6645  164.1734 C.3     1  UNL1        0.0365
     17 C         139.8662  142.6146  163.6239 C.ar    1  UNL1        0.0010
     18 C         139.1644  143.5731  164.5398 C.ar    1  UNL1        0.0199
     19 C         138.1420  144.5233  163.9902 C.ar    1  UNL1        0.1219
     20 N         137.8215  144.5150  162.5249 N.ar    1  UNL1       -0.1464
     21 N         138.5234  143.5565  161.6090 N.ar    1  UNL1       -0.1467
     22 C         139.5457  142.6064  162.1586 C.ar    1  UNL1        0.1179
     23 C         139.7347  140.7712  165.4342 C.3     1  UNL1        0.0394
     24 C         139.6786  139.5999  164.4989 C.ar    1  UNL1        0.0364
     25 C         140.7964  138.5997  164.4815 C.ar    1  UNL1        0.1574
     26 F         141.9702  138.7710  165.3995 F       1  UNL1       -0.2028
     27 C         140.7402  137.4284  163.5462 C.ar    1  UNL1        0.1282
     28 N         139.5663  137.2572  162.6283 N.ar    1  UNL1       -0.2376
     29 C         138.4485  138.2573  162.6457 C.ar    1  UNL1        0.1282
     30 C         138.5047  139.4287  163.5809 C.ar    1  UNL1        0.1574
     31 F         137.3869  140.4289  163.5983 F       1  UNL1       -0.2028
@<TRIPOS>BOND
     1     1     2    2
     2     2     3    1
     3     3     4   ar
     4     4     5   ar
     5     5     6   ar
     6     6     7   ar
     7     7     8   ar
     8     8     9    1
     9     9    16    1
    10    16    17    1
    11    17    18   ar
    12    18    19   ar
    13    19    20   ar
    14    20    21   ar
    15    21    22   ar
    16     9    23    1
    17    23    24    1
    18    24    25   ar
    19    25    26    1
    20    25    27   ar
    21    27    28   ar
    22    28    29   ar
    23    29    30   ar
    24    30    31    1
    25     9    10    1
    26    10    11   ar
    27    11    12   ar
    28    12    13   ar
    29    13    14   ar
    30    14    15   ar
    31    15     2    1
    32     8     3   ar
    33    22    17   ar
    34    30    24   ar
    35    15    10   ar
@<TRIPOS>MOLECULE
*****
 31 35 0 0 0
SMALL
GASTEIGER

@<TRIPOS>ATOM
      1 O         139.6844  139.5701  170.3562 O.2     1  UNL1       -0.2866
      2 C         140.2574  140.1684  169.1057 C.2     1  UNL1        0.1950
      3 C         141.4900  141.0203  169.1784 C.ar    1  UNL1        0.0353
      4 C         142.1495  141.2738  170.5016 C.ar    1  UNL1        0.0029
      5 C         143.3820  142.1256  170.5742 C.ar    1  UNL1        0.0001
      6 C         143.9549  142.7239  169.3238 C.ar    1  UNL1       -0.0003
      7 C         143.2954  142.4705  168.0006 C.ar    1  UNL1       -0.0039
      8 C         142.0629  141.6186  167.9280 C.ar    1  UNL1       -0.0153
      9 C         141.4033  141.3651  166.6048 C.3     1  UNL1        0.0462
     10 C         140.1708  140.5133  166.5321 C.ar    1  UNL1       -0.0153
     11 C         139.5113  140.2598  165.2089 C.ar    1  UNL1       -0.0039
     12 C         138.2788  139.4080  165.1363 C.ar    1  UNL1       -0.0003
     13 C         137.7058  138.8096  166.3867 C.ar    1  UNL1        0.0001
     14 C         138.3653  139.0631  167.7099 C.ar    1  UNL1        0.0029
     15 C         139.5979  139.9150  167.7826 C.ar    1  UNL1        0.0353
     16 C         142.5445  142.2337  166.1648 C.3     1  UNL1        0.0365
     17 C         143.5590  141.7048  165.1948 C.ar    1  UNL1        0.0010
     18 C         143.7660  140.2254  165.0582 C.ar    1  UNL1        0.0199
     19 C         144.7805  139.6966  164.0881 C.ar    1  UNL1        0.1219
     20 N         145.5881  140.6471  163.2547 N.ar    1  UNL1       -0.1464
     21 N         145.3811  142.1265  163.3914 N.ar    1  UNL1       -0.1467
     22 C         144.3665  142.6553  164.3615 C.ar    1  UNL1        0.1179
     23 C         141.1401  141.4133  165.1288 C.3     1  UNL1        0.0394
     24 C         140.6408  142.6788  164.4970 C.ar    1  UNL1        0.0364
     25 C         140.9062  142.9477  163.0453 C.ar    1  UNL1        0.1574
     26 F         141.6709  141.9511  162.2256 F       1  UNL1       -0.2028
     27 C         140.4069  144.2132  162.4135 C.ar    1  UNL1        0.1282
     28 N         139.6421  145.2098  163.2333 N.ar    1  UNL1       -0.2376
     29 C         139.3768  144.9408  164.6849 C.ar    1  UNL1        0.1282
     30 C         139.8761  143.6753  165.3167 C.ar    1  UNL1        0.1574
     31 F         139.6107  143.4064  166.7684 F       1  UNL1       -0.2028
@<TRIPOS>BOND
     1     1     2    2
     2     2     3    1
     3     3     4   ar
     4     4     5   ar
     5     5     6   ar
     6     6     7   ar
     7     7     8   ar
     8     8     9    1
     9     9    16    1
    10    16    17    1
    11    17    18   ar
    12    18    19   ar
    13    19    20   ar
    14    20    21   ar
    15    21    22   ar
    16     9    23    1
    17    23    24    1
    18    24    25   ar
    19    25    26    1
    20    25    27   ar
    21    27    28   ar
    22    28    29   ar
    23    29    30   ar
    24    30    31    1
    25     9    10    1
    26    10    11   ar
    27    11    12   ar
    28    12    13   ar
    29    13    14   ar
    30    14    15   ar
    31    15     2    1
    32     8     3   ar
    33    22    17   ar
    34    30    24   ar
    35    15    10   ar
@<TRIPOS>MOLECULE
*****
 31 35 0 0 0
SMALL
GASTEIGER

@<TRIPOS>ATOM
      1 O         140.9931  136.6140  163.2284 O.2     1  UNL1       -0.2866
      2 C         141.1161  137.8892  164.0086 C.2     1  UNL1        0.1950
      3 C         142.2709  138.8133  163.7580 C.ar    1  UNL1        0.0353
      4 C         143.3025  138.4622  162.7273 C.ar    1  UNL1        0.0029
      5 C         144.4571  139.3862  162.4767 C.ar    1  UNL1        0.0001
      6 C         144.5802  140.6614  163.2569 C.ar    1  UNL1       -0.0003
      7 C         143.5486  141.0126  164.2877 C.ar    1  UNL1       -0.0039
      8 C         142.3939  140.0885  164.5382 C.ar    1  UNL1       -0.0153
      9 C         141.3622  140.4396  165.5690 C.3     1  UNL1        0.0462
     10 C         140.2076  139.5156  165.8195 C.ar    1  UNL1       -0.0153
     11 C         139.1759  139.8667  166.8503 C.ar    1  UNL1       -0.0039
     12 C         138.0212  138.9426  167.1008 C.ar    1  UNL1       -0.0003
     13 C         137.8982  137.6674  166.3206 C.ar    1  UNL1        0.0001
     14 C         138.9298  137.3163  165.2899 C.ar    1  UNL1        0.0029
     15 C         140.0845  138.2403  165.0393 C.ar    1  UNL1        0.0353
     16 C         142.2679  141.6291  165.6911 C.3     1  UNL1        0.0365
     17 C         141.9339  142.9030  164.9731 C.ar    1  UNL1        0.0010
     18 C         140.5237  143.1707  164.5373 C.ar    1  UNL1        0.0199
     19 C         140.1898  144.4446  163.8192 C.ar    1  UNL1        0.1219
     20 N         141.2659  145.4508  163.5369 N.ar    1  UNL1       -0.1464
     21 N         142.6760  145.1830  163.9727 N.ar    1  UNL1       -0.1467
     22 C         143.0099  143.9092  164.6908 C.ar    1  UNL1        0.1179
     23 C         140.6451  141.2039  166.6422 C.3     1  UNL1        0.0394
     24 C         141.3356  141.5009  167.9403 C.ar    1  UNL1        0.0364
     25 C         142.3051  140.5124  168.5174 C.ar    1  UNL1        0.1574
     26 F         142.5841  139.2270  167.7964 F       1  UNL1       -0.2028
     27 C         142.9956  140.8095  169.8155 C.ar    1  UNL1        0.1282
     28 N         142.7165  142.0950  170.5364 N.ar    1  UNL1       -0.2376
     29 C         141.7470  143.0833  169.9593 C.ar    1  UNL1        0.1282
     30 C         141.0565  142.7863  168.6612 C.ar    1  UNL1        0.1574
     31 F         140.0870  143.7748  168.0841 F       1  UNL1       -0.2028
@<TRIPOS>BOND
     1     1     2    2
     2     2     3    1
     3     3     4   ar
     4     4     5   ar
     5     5     6   ar
     6     6     7   ar
     7     7     8   ar
     8     8     9    1
     9     9    16    1
    10    16    17    1
    11    17    18   ar
    12    18    19   ar
    13    19    20   ar
    14    20    21   ar
    15    21    22   ar
    16     9    23    1
    17    23    24    1
    18    24    25   ar
    19    25    26    1
    20    25    27   ar
    21    27    28   ar
    22    28    29   ar
    23    29    30   ar
    24    30    31    1
    25     9    10    1
    26    10    11   ar
    27    11    12   ar
    28    12    13   ar
    29    13    14   ar
    30    14    15   ar
    31    15     2    1
    32     8     3   ar
    33    22    17   ar
    34    30    24   ar
    35    15    10   ar
@<TRIPOS>MOLECULE
*****
 31 35 0 0 0
SMALL
GASTEIGER

@<TRIPOS>ATOM
      1 O         143.8694  142.6245  169.0573 O.2     1  UNL1       -0.2866
      2 C         142.9603  142.2386  167.9282 C.2     1  UNL1        0.1950
      3 C         141.7184  141.4436  168.2035 C.ar    1  UNL1        0.0353
      4 C         141.3856  141.0346  169.6077 C.ar    1  UNL1        0.0029
      5 C         140.1437  140.2397  169.8829 C.ar    1  UNL1        0.0001
      6 C         139.2346  139.8537  168.7539 C.ar    1  UNL1       -0.0003
      7 C         139.5675  140.2628  167.3497 C.ar    1  UNL1       -0.0039
      8 C         140.8093  141.0577  167.0745 C.ar    1  UNL1       -0.0153
      9 C         141.1422  141.4667  165.6702 C.3     1  UNL1        0.0462
     10 C         142.3841  142.2617  165.3950 C.ar    1  UNL1       -0.0153
     11 C         142.7170  142.6707  163.9907 C.ar    1  UNL1       -0.0039
     12 C         143.9588  143.4657  163.7155 C.ar    1  UNL1       -0.0003
     13 C         144.8679  143.8516  164.8445 C.ar    1  UNL1        0.0001
     14 C         144.5351  143.4426  166.2488 C.ar    1  UNL1        0.0029
     15 C         143.2931  142.6476  166.5240 C.ar    1  UNL1        0.0353
     16 C         139.8614  140.7243  165.4286 C.3     1  UNL1        0.0365
     17 C         139.8576  139.4954  164.5686 C.ar    1  UNL1        0.0010
     18 C         141.1098  138.6840  164.4143 C.ar    1  UNL1        0.0199
     19 C         141.1060  137.4551  163.5543 C.ar    1  UNL1        0.1219
     20 N         139.8501  137.0375  162.8485 N.ar    1  UNL1       -0.1464
     21 N         138.5978  137.8488  163.0027 N.ar    1  UNL1       -0.1467
     22 C         138.6017  139.0777  163.8628 C.ar    1  UNL1        0.1179
     23 C         141.0302  141.6179  164.1820 C.3     1  UNL1        0.0394
     24 C         139.9436  142.4686  163.5943 C.ar    1  UNL1        0.0364
     25 C         139.4047  142.1594  162.2290 C.ar    1  UNL1        0.1574
     26 F         139.9525  140.9994  161.4515 F       1  UNL1       -0.2028
     27 C         138.3180  143.0101  161.6412 C.ar    1  UNL1        0.1282
     28 N         137.7702  144.1700  162.4188 N.ar    1  UNL1       -0.2376
     29 C         138.3091  144.4792  163.7840 C.ar    1  UNL1        0.1282
     30 C         139.3958  143.6285  164.3718 C.ar    1  UNL1        0.1574
     31 F         139.9347  143.9378  165.7371 F       1  UNL1       -0.2028
@<TRIPOS>BOND
     1     1     2    2
     2     2     3    1
     3     3     4   ar
     4     4     5   ar
     5     5     6   ar
     6     6     7   ar
     7     7     8   ar
     8     8     9    1
     9     9    16    1
    10    16    17    1
    11    17    18   ar
    12    18    19   ar
    13    19    20   ar
    14    20    21   ar
    15    21    22   ar
    16     9    23    1
    17    23    24    1
    18    24    25   ar
    19    25    26    1
    20    25    27   ar
    21    27    28   ar
    22    28    29   ar
    23    29    30   ar
    24    30    31    1
    25     9    10    1
    26    10    11   ar
    27    11    12   ar
    28    12    13   ar
    29    13    14   ar
    30    14    15   ar
    31    15     2    1
    32     8     3   ar
    33    22    17   ar
    34    30    24   ar
    35    15    10   ar
@<TRIPOS>MOLECULE
*****
 31 35 0 0 0
SMALL
GASTEIGER

@<TRIPOS>ATOM
      1 O         146.0716  141.7292  163.1316 O.2     1  UNL1       -0.2866
      2 C         144.7751  141.7214  163.8858 C.2     1  UNL1        0.1950
      3 C         143.8446  142.8941  163.7898 C.ar    1  UNL1        0.0353
      4 C         144.2108  144.0745  162.9397 C.ar    1  UNL1        0.0029
      5 C         143.2803  145.2471  162.8438 C.ar    1  UNL1        0.0001
      6 C         141.9837  145.2393  163.5980 C.ar    1  UNL1       -0.0003
      7 C         141.6176  144.0590  164.4481 C.ar    1  UNL1       -0.0039
      8 C         142.5480  142.8864  164.5440 C.ar    1  UNL1       -0.0153
      9 C         142.1819  141.7060  165.3942 C.3     1  UNL1        0.0462
     10 C         143.1123  140.5334  165.4901 C.ar    1  UNL1       -0.0153
     11 C         142.7462  139.3530  166.3402 C.ar    1  UNL1       -0.0039
     12 C         143.6767  138.1804  166.4361 C.ar    1  UNL1       -0.0003
     13 C         144.9732  138.1881  165.6819 C.ar    1  UNL1        0.0001
     14 C         145.3394  139.3684  164.8318 C.ar    1  UNL1        0.0029
     15 C         144.4089  140.5411  164.7359 C.ar    1  UNL1        0.0353
     16 C         140.9792  142.5733  165.6208 C.3     1  UNL1        0.0365
     17 C         139.7188  142.3251  164.8464 C.ar    1  UNL1        0.0010
     18 C         139.5898  141.0948  163.9981 C.ar    1  UNL1        0.0199
     19 C         138.3293  140.8467  163.2237 C.ar    1  UNL1        0.1219
     20 N         137.1980  141.8287  163.2976 N.ar    1  UNL1       -0.1464
     21 N         137.3270  143.0591  164.1460 N.ar    1  UNL1       -0.1467
     22 C         138.5874  143.3072  164.9204 C.ar    1  UNL1        0.1179
     23 C         141.3981  140.8269  166.3230 C.3     1  UNL1        0.0394
     24 C         141.1268  141.2743  167.7288 C.ar    1  UNL1        0.0364
     25 C         139.8652  140.8503  168.4206 C.ar    1  UNL1        0.1574
     26 F         138.8749  139.9789  167.7065 F       1  UNL1       -0.2028
     27 C         139.5939  141.2978  169.8263 C.ar    1  UNL1        0.1282
     28 N         140.5843  142.1693  170.5403 N.ar    1  UNL1       -0.2376
     29 C         141.8459  142.5933  169.8485 C.ar    1  UNL1        0.1282
     30 C         142.1171  142.1458  168.4428 C.ar    1  UNL1        0.1574
     31 F         143.3788  142.5698  167.7510 F       1  UNL1       -0.2028
@<TRIPOS>BOND
     1     1     2    2
     2     2     3    1
     3     3     4   ar
     4     4     5   ar
     5     5     6   ar
     6     6     7   ar
     7     7     8   ar
     8     8     9    1
     9     9    16    1
    10    16    17    1
    11    17    18   ar
    12    18    19   ar
    13    19    20   ar
    14    20    21   ar
    15    21    22   ar
    16     9    23    1
    17    23    24    1
    18    24    25   ar
    19    25    26    1
    20    25    27   ar
    21    27    28   ar
    22    28    29   ar
    23    29    30   ar
    24    30    31    1
    25     9    10    1
    26    10    11   ar
    27    11    12   ar
    28    12    13   ar
    29    13    14   ar
    30    14    15   ar
    31    15     2    1
    32     8     3   ar
    33    22    17   ar
    34    30    24   ar
    35    15    10   ar
@<TRIPOS>MOLECULE
*****
 31 35 0 0 0
SMALL
GASTEIGER

@<TRIPOS>ATOM
      1 O         140.8511  145.8612  162.7113 O.2     1  UNL1       -0.2866
      2 C         140.9533  144.5809  163.4861 C.2     1  UNL1        0.1950
      3 C         139.8030  143.6182  163.4989 C.ar    1  UNL1        0.0353
      4 C         138.5506  143.9359  162.7370 C.ar    1  UNL1        0.0029
      5 C         137.4004  142.9732  162.7498 C.ar    1  UNL1        0.0001
      6 C         137.5025  141.6928  163.5246 C.ar    1  UNL1       -0.0003
      7 C         138.7549  141.3752  164.2866 C.ar    1  UNL1       -0.0039
      8 C         139.9051  142.3379  164.2737 C.ar    1  UNL1       -0.0153
      9 C         141.1576  142.0202  165.0357 C.3     1  UNL1        0.0462
     10 C         142.3078  142.9829  165.0228 C.ar    1  UNL1       -0.0153
     11 C         143.5603  142.6653  165.7848 C.ar    1  UNL1       -0.0039
     12 C         144.7105  143.6279  165.7719 C.ar    1  UNL1       -0.0003
     13 C         144.6083  144.9083  164.9971 C.ar    1  UNL1        0.0001
     14 C         143.3560  145.2259  164.2352 C.ar    1  UNL1        0.0029
     15 C         142.2056  144.2632  164.2480 C.ar    1  UNL1        0.0353
     16 C         140.3442  140.8000  165.3512 C.3     1  UNL1        0.0365
     17 C         140.6359  139.5036  164.6554 C.ar    1  UNL1        0.0010
     18 C         141.3869  139.5018  163.3569 C.ar    1  UNL1        0.0199
     19 C         141.6786  138.2053  162.6612 C.ar    1  UNL1        0.1219
     20 N         141.2193  136.9107  163.2638 N.ar    1  UNL1       -0.1464
     21 N         140.4683  136.9126  164.5622 N.ar    1  UNL1       -0.1467
     22 C         140.1766  138.2091  165.2580 C.ar    1  UNL1        0.1179
     23 C         142.1275  141.2788  165.9072 C.3     1  UNL1        0.0394
     24 C         141.7851  140.9983  167.3404 C.ar    1  UNL1        0.0364
     25 C         140.9452  141.9703  168.1149 C.ar    1  UNL1        0.1574
     26 F         140.4478  143.2227  167.4562 F       1  UNL1       -0.2028
     27 C         140.6028  141.6898  169.5481 C.ar    1  UNL1        0.1282
     28 N         141.1003  140.4373  170.2068 N.ar    1  UNL1       -0.2376
     29 C         141.9402  139.4654  169.4323 C.ar    1  UNL1        0.1282
     30 C         142.2826  139.7459  167.9991 C.ar    1  UNL1        0.1574
     31 F         143.1225  138.7739  167.2246 F       1  UNL1       -0.2028
@<TRIPOS>BOND
     1     1     2    2
     2     2     3    1
     3     3     4   ar
     4     4     5   ar
     5     5     6   ar
     6     6     7   ar
     7     7     8   ar
     8     8     9    1
     9     9    16    1
    10    16    17    1
    11    17    18   ar
    12    18    19   ar
    13    19    20   ar
    14    20    21   ar
    15    21    22   ar
    16     9    23    1
    17    23    24    1
    18    24    25   ar
    19    25    26    1
    20    25    27   ar
    21    27    28   ar
    22    28    29   ar
    23    29    30   ar
    24    30    31    1
    25     9    10    1
    26    10    11   ar
    27    11    12   ar
    28    12    13   ar
    29    13    14   ar
    30    14    15   ar
    31    15     2    1
    32     8     3   ar
    33    22    17   ar
    34    30    24   ar
    35    15    10   ar
@<TRIPOS>MOLECULE
*****
 31 35 0 0 0
SMALL
GASTEIGER

@<TRIPOS>ATOM
      1 O         140.6705  136.7746  162.8113 O.2     1  UNL1       -0.2866
      2 C         141.0565  137.9620  163.6427 C.2     1  UNL1        0.1950
      3 C         140.2018  138.3738  164.8046 C.ar    1  UNL1        0.0353
      4 C         138.9611  137.5982  165.1350 C.ar    1  UNL1        0.0029
      5 C         138.1064  138.0101  166.2968 C.ar    1  UNL1        0.0001
      6 C         138.4924  139.1974  167.1283 C.ar    1  UNL1       -0.0003
      7 C         139.7331  139.9729  166.7979 C.ar    1  UNL1       -0.0039
      8 C         140.5878  139.5611  165.6360 C.ar    1  UNL1       -0.0153
      9 C         141.8286  140.3366  165.3056 C.3     1  UNL1        0.0462
     10 C         142.6832  139.9248  164.1437 C.ar    1  UNL1       -0.0153
     11 C         143.9240  140.7003  163.8133 C.ar    1  UNL1       -0.0039
     12 C         144.7787  140.2885  162.6515 C.ar    1  UNL1       -0.0003
     13 C         144.3927  139.1012  161.8200 C.ar    1  UNL1        0.0001
     14 C         143.1520  138.3257  162.1504 C.ar    1  UNL1        0.0029
     15 C         142.2972  138.7375  163.3123 C.ar    1  UNL1        0.0353
     16 C         141.3466  141.1112  166.4963 C.3     1  UNL1        0.0365
     17 C         142.0932  141.0319  167.7949 C.ar    1  UNL1        0.0010
     18 C         142.4846  142.2893  168.5130 C.ar    1  UNL1        0.0199
     19 C         143.2312  142.2099  169.8116 C.ar    1  UNL1        0.1219
     20 N         143.5863  140.8731  170.3921 N.ar    1  UNL1       -0.1464
     21 N         143.1948  139.6157  169.6740 N.ar    1  UNL1       -0.1467
     22 C         142.4483  139.6951  168.3754 C.ar    1  UNL1        0.1179
     23 C         142.9019  141.3811  165.3887 C.3     1  UNL1        0.0394
     24 C         142.6899  142.7261  164.7593 C.ar    1  UNL1        0.0364
     25 C         141.4293  143.0067  163.9963 C.ar    1  UNL1        0.1574
     26 F         140.3808  141.9424  163.8627 F       1  UNL1       -0.2028
     27 C         141.2173  144.3517  163.3669 C.ar    1  UNL1        0.1282
     28 N         142.2659  145.4160  163.5005 N.ar    1  UNL1       -0.2376
     29 C         143.5264  145.1353  164.2635 C.ar    1  UNL1        0.1282
     30 C         143.7384  143.7904  164.8929 C.ar    1  UNL1        0.1574
     31 F         144.9990  143.5097  165.6559 F       1  UNL1       -0.2028
@<TRIPOS>BOND
     1     1     2    2
     2     2     3    1
     3     3     4   ar
     4     4     5   ar
     5     5     6   ar
     6     6     7   ar
     7     7     8   ar
     8     8     9    1
     9     9    16    1
    10    16    17    1
    11    17    18   ar
    12    18    19   ar
    13    19    20   ar
    14    20    21   ar
    15    21    22   ar
    16     9    23    1
    17    23    24    1
    18    24    25   ar
    19    25    26    1
    20    25    27   ar
    21    27    28   ar
    22    28    29   ar
    23    29    30   ar
    24    30    31    1
    25     9    10    1
    26    10    11   ar
    27    11    12   ar
    28    12    13   ar
    29    13    14   ar
    30    14    15   ar
    31    15     2    1
    32     8     3   ar
    33    22    17   ar
    34    30    24   ar
    35    15    10   ar
