@<TRIPOS>MOLECULE
*****
 42 47 0 0 0
SMALL
GASTEIGER

@<TRIPOS>ATOM
      1 C         144.3189  139.8206  163.3361 C.3     1  UNL1        0.0570
      2 C         143.4691  139.2363  162.2469 C.3     1  UNL1        0.0331
      3 C         142.2287  138.4675  162.5942 C.3     1  UNL1        0.0735
      4 N         141.8382  138.2832  164.0307 N.3     1  UNL1       -0.2710
      5 C         142.6880  138.8676  165.1199 C.3     1  UNL1        0.0735
      6 C         143.9283  139.6363  164.7726 C.3     1  UNL1        0.0331
      7 N         145.5592  140.5893  162.9888 N.3     1  UNL1       -0.2934
      8 H         146.3382  140.1119  163.4423 H       1  UNL1        0.1236
      9 C         145.6691  142.0402  163.3535 C.3     1  UNL1        0.1152
     10 O         140.2877  145.3751  158.8072 O.2     1  UNL1       -0.2707
     11 C         140.8963  145.1689  160.1626 C.2     1  UNL1        0.2718
     12 C         140.3199  145.8682  161.3578 C.3     1  UNL1        0.2898
     13 O         140.9286  145.6620  162.7132 O.3     1  UNL1       -0.4628
     14 C         142.1137  144.7566  162.8733 C.ar    1  UNL1        0.1708
     15 C         142.7224  144.5504  164.2286 C.ar    1  UNL1        0.0411
     16 C         143.9075  143.6450  164.3887 C.ar    1  UNL1        0.0193
     17 C         144.4840  142.9457  163.1934 C.ar    1  UNL1        0.0765
     18 N         143.8753  143.1518  161.8380 N.ar    1  UNL1       -0.2304
     19 C         142.6901  144.0573  161.6780 C.ar    1  UNL1        0.1682
     20 N         142.0815  144.2635  160.3226 N.am    1  UNL1       -0.2639
     21 H         142.4598  143.8045  159.5381 H       1  UNL1        0.1565
     22 C         140.5979  137.5145  164.3780 C.3     1  UNL1        0.0970
     23 C         139.3431  138.2454  164.7537 C.3     1  UNL1        0.1264
     24 N         138.8526  139.3797  163.9033 N.ar    1  UNL1       -0.2926
     25 C         138.1677  139.0975  162.5990 C.ar    1  UNL1        0.2611
     26 O         137.9733  137.6811  162.1450 O.2     1  UNL1       -0.2670
     27 C         137.6773  140.2316  161.7486 C.ar    1  UNL1        0.0623
     28 C         137.8717  141.6481  162.2026 C.ar    1  UNL1        0.0255
     29 C         138.5567  141.9302  163.5070 C.ar    1  UNL1        0.0975
     30 N         138.7511  143.3466  163.9610 N.ar    1  UNL1       -0.2392
     31 C         139.4360  143.6287  165.2653 C.ar    1  UNL1        0.1363
     32 C         139.9265  142.4946  166.1156 C.ar    1  UNL1        0.1659
     33 C         139.7320  141.0781  165.6616 C.ar    1  UNL1        0.0579
     34 C         139.0471  140.7960  164.3573 C.ar    1  UNL1        0.0832
     35 O         140.6114  142.7767  167.4200 O.3     1  UNL1       -0.4502
     36 C         141.0665  141.6419  168.2890 C.ar    1  UNL1        0.1667
     37 C         142.4309  141.0496  168.0955 C.ar    1  UNL1        0.1364
     38 N         142.8861  139.9148  168.9645 N.ar    1  UNL1       -0.2368
     39 C         141.9767  139.3723  170.0270 C.ar    1  UNL1        0.1286
     40 C         140.6122  139.9647  170.2204 C.ar    1  UNL1        0.1623
     41 F         139.7029  139.4223  171.2829 F       1  UNL1       -0.2024
     42 C         140.1572  141.0995  169.3514 C.ar    1  UNL1        0.0703
@<TRIPOS>BOND
     1    10    11    2
     2    11    12    1
     3    12    13    1
     4    13    14    1
     5    14    15   ar
     6    15    16   ar
     7    16    17   ar
     8    17     9    1
     9     9     7    1
    10     7     1    1
    11     1     2    1
    12     2     3    1
    13     3     4    1
    14     4    22    1
    15    22    23    1
    16    23    24    1
    17    24    25   ar
    18    25    26    2
    19    25    27   ar
    20    27    28   ar
    21    28    29   ar
    22    29    30   ar
    23    30    31   ar
    24    31    32   ar
    25    32    35    1
    26    35    36    1
    27    36    37   ar
    28    37    38   ar
    29    38    39   ar
    30    39    40   ar
    31    40    41    1
    32    40    42   ar
    33    32    33   ar
    34    33    34   ar
    35     4     5    1
    36     5     6    1
    37    17    18   ar
    38    18    19   ar
    39    19    20    1
    40    20    11   am
    41    19    14   ar
    42     6     1    1
    43    34    24   ar
    44    34    29   ar
    45    42    36   ar
    46     7     8    1
    47    20    21    1
@<TRIPOS>MOLECULE
*****
 42 47 0 0 0
SMALL
GASTEIGER

@<TRIPOS>ATOM
      1 C         138.2851  140.3962  161.3120 C.3     1  UNL1        0.0570
      2 C         138.5836  141.7042  160.6412 C.3     1  UNL1        0.0331
      3 C         138.3845  142.9913  161.3854 C.3     1  UNL1        0.0735
      4 N         137.8870  142.9704  162.8003 N.3     1  UNL1       -0.2710
      5 C         137.5885  141.6623  163.4711 C.3     1  UNL1        0.0735
      6 C         137.7876  140.3752  162.7269 C.3     1  UNL1        0.0331
      7 N         138.4842  139.1091  160.5679 N.3     1  UNL1       -0.2934
      8 H         137.5589  138.7864  160.2850 H       1  UNL1        0.1236
      9 C         139.1600  137.9509  161.2401 C.3     1  UNL1        0.1152
     10 O         145.8388  141.7704  162.4865 O.2     1  UNL1       -0.2707
     11 C         144.8454  140.7234  162.8950 C.2     1  UNL1        0.2718
     12 C         145.0849  139.9025  164.1273 C.3     1  UNL1        0.2898
     13 O         144.0915  138.8555  164.5358 O.3     1  UNL1       -0.4628
     14 C         142.8586  138.6293  163.7119 C.ar    1  UNL1        0.1708
     15 C         141.8652  137.5823  164.1204 C.ar    1  UNL1        0.0411
     16 C         140.6323  137.3561  163.2965 C.ar    1  UNL1        0.0193
     17 C         140.3928  138.1770  162.0640 C.ar    1  UNL1        0.0765
     18 N         141.3862  139.2241  161.6556 N.ar    1  UNL1       -0.2304
     19 C         142.6192  139.4502  162.4795 C.ar    1  UNL1        0.1682
     20 N         143.6126  140.4972  162.0711 N.am    1  UNL1       -0.2639
     21 H         143.4554  141.0360  161.2622 H       1  UNL1        0.1565
     22 C         137.6879  144.2574  163.5445 C.3     1  UNL1        0.0970
     23 C         138.7624  144.7702  164.4568 C.3     1  UNL1        0.1264
     24 N         140.2061  144.5841  164.0943 N.ar    1  UNL1       -0.2926
     25 C         140.7901  145.3323  162.9328 C.ar    1  UNL1        0.2611
     26 O         139.9305  146.2667  162.1339 O.2     1  UNL1       -0.2670
     27 C         142.2337  145.1463  162.5702 C.ar    1  UNL1        0.0623
     28 C         143.0933  144.2119  163.3691 C.ar    1  UNL1        0.0255
     29 C         142.5092  143.4637  164.5306 C.ar    1  UNL1        0.0975
     30 N         143.3687  142.5294  165.3295 N.ar    1  UNL1       -0.2392
     31 C         142.7847  141.7811  166.4910 C.ar    1  UNL1        0.1363
     32 C         141.3412  141.9672  166.8535 C.ar    1  UNL1        0.1659
     33 C         140.4816  142.9015  166.0546 C.ar    1  UNL1        0.0579
     34 C         141.0656  143.6498  164.8932 C.ar    1  UNL1        0.0832
     35 O         140.7571  141.2189  168.0150 O.3     1  UNL1       -0.4502
     36 C         139.6509  140.2309  167.7909 C.ar    1  UNL1        0.1667
     37 C         138.7047  139.8987  168.9063 C.ar    1  UNL1        0.1364
     38 N         137.5984  138.9107  168.6821 N.ar    1  UNL1       -0.2368
     39 C         137.4384  138.2550  167.3425 C.ar    1  UNL1        0.1286
     40 C         138.3847  138.5874  166.2271 C.ar    1  UNL1        0.1623
     41 F         138.2248  137.9317  164.8875 F       1  UNL1       -0.2024
     42 C         139.4909  139.5753  166.4513 C.ar    1  UNL1        0.0703
@<TRIPOS>BOND
     1    10    11    2
     2    11    12    1
     3    12    13    1
     4    13    14    1
     5    14    15   ar
     6    15    16   ar
     7    16    17   ar
     8    17     9    1
     9     9     7    1
    10     7     1    1
    11     1     2    1
    12     2     3    1
    13     3     4    1
    14     4    22    1
    15    22    23    1
    16    23    24    1
    17    24    25   ar
    18    25    26    2
    19    25    27   ar
    20    27    28   ar
    21    28    29   ar
    22    29    30   ar
    23    30    31   ar
    24    31    32   ar
    25    32    35    1
    26    35    36    1
    27    36    37   ar
    28    37    38   ar
    29    38    39   ar
    30    39    40   ar
    31    40    41    1
    32    40    42   ar
    33    32    33   ar
    34    33    34   ar
    35     4     5    1
    36     5     6    1
    37    17    18   ar
    38    18    19   ar
    39    19    20    1
    40    20    11   am
    41    19    14   ar
    42     6     1    1
    43    34    24   ar
    44    34    29   ar
    45    42    36   ar
    46     7     8    1
    47    20    21    1
@<TRIPOS>MOLECULE
*****
 42 47 0 0 0
SMALL
GASTEIGER

@<TRIPOS>ATOM
      1 C         144.0299  139.7058  163.3033 C.3     1  UNL1        0.0570
      2 C         143.1461  139.0374  162.2923 C.3     1  UNL1        0.0331
      3 C         141.8733  138.3751  162.7301 C.3     1  UNL1        0.0735
      4 N         141.4844  138.3813  164.1788 N.3     1  UNL1       -0.2710
      5 C         142.3684  139.0497  165.1898 C.3     1  UNL1        0.0735
      6 C         143.6411  139.7119  164.7520 C.3     1  UNL1        0.0331
      7 N         145.3026  140.3680  162.8655 N.3     1  UNL1       -0.2934
      8 H         146.0001  140.1683  163.5824 H       1  UNL1        0.1236
      9 C         145.3350  141.8491  162.6304 C.3     1  UNL1        0.1152
     10 O         139.2432  146.5600  161.4277 O.2     1  UNL1       -0.2707
     11 C         140.2856  145.6226  160.8943 C.2     1  UNL1        0.2718
     12 C         140.3399  145.3181  159.4266 C.3     1  UNL1        0.2898
     13 O         141.3824  144.3807  158.8931 O.3     1  UNL1       -0.4628
     14 C         142.3706  143.7478  159.8274 C.ar    1  UNL1        0.1708
     15 C         143.4130  142.8105  159.2940 C.ar    1  UNL1        0.0411
     16 C         144.4012  142.1775  160.2283 C.ar    1  UNL1        0.0193
     17 C         144.3469  142.4820  161.6961 C.ar    1  UNL1        0.0765
     18 N         143.3044  143.4194  162.2295 N.ar    1  UNL1       -0.2304
     19 C         142.3162  144.0523  161.2951 C.ar    1  UNL1        0.1682
     20 N         141.2738  144.9897  161.8286 N.am    1  UNL1       -0.2639
     21 H         141.2381  145.1896  162.7919 H       1  UNL1        0.1565
     22 C         140.2118  137.7191  164.6166 C.3     1  UNL1        0.0970
     23 C         138.9534  138.5249  164.7467 C.3     1  UNL1        0.1264
     24 N         138.7053  139.6825  163.8255 N.ar    1  UNL1       -0.2926
     25 C         138.1277  139.4453  162.4617 C.ar    1  UNL1        0.2611
     26 O         137.7982  138.0504  162.0191 O.2     1  UNL1       -0.2670
     27 C         137.8797  140.6027  161.5405 C.ar    1  UNL1        0.0623
     28 C         138.2093  141.9976  161.9831 C.ar    1  UNL1        0.0255
     29 C         138.7869  142.2349  163.3469 C.ar    1  UNL1        0.0975
     30 N         139.1165  143.6296  163.7896 N.ar    1  UNL1       -0.2392
     31 C         139.6941  143.8669  165.1534 C.ar    1  UNL1        0.1363
     32 C         139.9421  142.7094  166.0746 C.ar    1  UNL1        0.1659
     33 C         139.6125  141.3146  165.6320 C.ar    1  UNL1        0.0579
     34 C         139.0349  141.0773  164.2682 C.ar    1  UNL1        0.0832
     35 O         140.5197  142.9467  167.4385 O.3     1  UNL1       -0.4502
     36 C         141.0090  141.7891  168.2575 C.ar    1  UNL1        0.1667
     37 C         142.3781  141.2257  168.0170 C.ar    1  UNL1        0.1364
     38 N         142.8674  140.0682  168.8360 N.ar    1  UNL1       -0.2368
     39 C         141.9874  139.4741  169.8956 C.ar    1  UNL1        0.1286
     40 C         140.6182  140.0375  170.1361 C.ar    1  UNL1        0.1623
     41 F         139.7382  139.4434  171.1957 F       1  UNL1       -0.2024
     42 C         140.1290  141.1950  169.3171 C.ar    1  UNL1        0.0703
@<TRIPOS>BOND
     1    10    11    2
     2    11    12    1
     3    12    13    1
     4    13    14    1
     5    14    15   ar
     6    15    16   ar
     7    16    17   ar
     8    17     9    1
     9     9     7    1
    10     7     1    1
    11     1     2    1
    12     2     3    1
    13     3     4    1
    14     4    22    1
    15    22    23    1
    16    23    24    1
    17    24    25   ar
    18    25    26    2
    19    25    27   ar
    20    27    28   ar
    21    28    29   ar
    22    29    30   ar
    23    30    31   ar
    24    31    32   ar
    25    32    35    1
    26    35    36    1
    27    36    37   ar
    28    37    38   ar
    29    38    39   ar
    30    39    40   ar
    31    40    41    1
    32    40    42   ar
    33    32    33   ar
    34    33    34   ar
    35     4     5    1
    36     5     6    1
    37    17    18   ar
    38    18    19   ar
    39    19    20    1
    40    20    11   am
    41    19    14   ar
    42     6     1    1
    43    34    24   ar
    44    34    29   ar
    45    42    36   ar
    46     7     8    1
    47    20    21    1
@<TRIPOS>MOLECULE
*****
 42 47 0 0 0
SMALL
GASTEIGER

@<TRIPOS>ATOM
      1 C         142.2466  144.4999  163.4406 C.3     1  UNL1        0.0570
      2 C         143.2499  144.0023  162.4428 C.3     1  UNL1        0.0331
      3 C         143.9869  142.7204  162.6956 C.3     1  UNL1        0.0735
      4 N         143.7205  141.9363  163.9463 N.3     1  UNL1       -0.2710
      5 C         142.7171  142.4341  164.9441 C.3     1  UNL1        0.0735
      6 C         141.9802  143.7158  164.6913 C.3     1  UNL1        0.0331
      7 N         141.5097  145.7817  163.1877 N.3     1  UNL1       -0.2934
      8 H         141.2783  146.1733  164.1006 H       1  UNL1        0.1236
      9 C         140.2417  145.7723  162.3864 C.3     1  UNL1        0.1152
     10 O         138.7388  139.3008  158.3108 O.2     1  UNL1       -0.2707
     11 C         138.4718  140.1813  159.4955 C.2     1  UNL1        0.2718
     12 C         137.4369  139.7850  160.5064 C.3     1  UNL1        0.2898
     13 O         137.1700  140.6654  161.6911 O.3     1  UNL1       -0.4628
     14 C         137.9379  141.9421  161.8650 C.ar    1  UNL1        0.1708
     15 C         137.6709  142.8226  163.0497 C.ar    1  UNL1        0.0411
     16 C         138.4388  144.0993  163.2235 C.ar    1  UNL1        0.0193
     17 C         139.4738  144.4956  162.2126 C.ar    1  UNL1        0.0765
     18 N         139.7407  143.6152  161.0279 N.ar    1  UNL1       -0.2304
     19 C         138.9727  142.3384  160.8541 C.ar    1  UNL1        0.1682
     20 N         139.2397  141.4580  159.6694 N.am    1  UNL1       -0.2639
     21 H         139.9189  141.7181  159.0059 H       1  UNL1        0.1565
     22 C         144.4574  140.6545  164.1992 C.3     1  UNL1        0.0970
     23 C         143.7090  139.4361  164.6522 C.3     1  UNL1        0.1264
     24 N         142.5285  138.9459  163.8671 N.ar    1  UNL1       -0.2926
     25 C         142.7196  138.4191  162.4757 C.ar    1  UNL1        0.2611
     26 O         144.0912  138.3825  161.8694 O.2     1  UNL1       -0.2670
     27 C         141.5392  137.9290  161.6906 C.ar    1  UNL1        0.0623
     28 C         140.1676  137.9657  162.2969 C.ar    1  UNL1        0.0255
     29 C         139.9765  138.4925  163.6883 C.ar    1  UNL1        0.0975
     30 N         138.6051  138.5292  164.2946 N.ar    1  UNL1       -0.2392
     31 C         138.4140  139.0560  165.6860 C.ar    1  UNL1        0.1363
     32 C         139.5944  139.5461  166.4710 C.ar    1  UNL1        0.1659
     33 C         140.9659  139.5094  165.8648 C.ar    1  UNL1        0.0579
     34 C         141.1570  138.9826  164.4734 C.ar    1  UNL1        0.0832
     35 O         139.4033  140.0729  167.8624 O.3     1  UNL1       -0.4502
     36 C         140.5578  140.6878  168.5967 C.ar    1  UNL1        0.1667
     37 C         140.8402  142.1543  168.4567 C.ar    1  UNL1        0.1364
     38 N         141.9947  142.7692  169.1909 N.ar    1  UNL1       -0.2368
     39 C         142.8667  141.9176  170.0652 C.ar    1  UNL1        0.1286
     40 C         142.5842  140.4511  170.2053 C.ar    1  UNL1        0.1623
     41 F         143.4562  139.5994  171.0796 F       1  UNL1       -0.2024
     42 C         141.4298  139.8362  169.4710 C.ar    1  UNL1        0.0703
@<TRIPOS>BOND
     1    10    11    2
     2    11    12    1
     3    12    13    1
     4    13    14    1
     5    14    15   ar
     6    15    16   ar
     7    16    17   ar
     8    17     9    1
     9     9     7    1
    10     7     1    1
    11     1     2    1
    12     2     3    1
    13     3     4    1
    14     4    22    1
    15    22    23    1
    16    23    24    1
    17    24    25   ar
    18    25    26    2
    19    25    27   ar
    20    27    28   ar
    21    28    29   ar
    22    29    30   ar
    23    30    31   ar
    24    31    32   ar
    25    32    35    1
    26    35    36    1
    27    36    37   ar
    28    37    38   ar
    29    38    39   ar
    30    39    40   ar
    31    40    41    1
    32    40    42   ar
    33    32    33   ar
    34    33    34   ar
    35     4     5    1
    36     5     6    1
    37    17    18   ar
    38    18    19   ar
    39    19    20    1
    40    20    11   am
    41    19    14   ar
    42     6     1    1
    43    34    24   ar
    44    34    29   ar
    45    42    36   ar
    46     7     8    1
    47    20    21    1
@<TRIPOS>MOLECULE
*****
 42 47 0 0 0
SMALL
GASTEIGER

@<TRIPOS>ATOM
      1 C         138.3411  143.7477  163.2421 C.3     1  UNL1        0.0570
      2 C         138.9638  143.6950  164.6057 C.3     1  UNL1        0.0331
      3 C         138.9415  142.4175  165.3916 C.3     1  UNL1        0.0735
      4 N         138.2965  141.1927  164.8137 N.3     1  UNL1       -0.2710
      5 C         137.6738  141.2454  163.4500 C.3     1  UNL1        0.0735
      6 C         137.6962  142.5229  162.6643 C.3     1  UNL1        0.0331
      7 N         138.3634  145.0252  162.4564 N.3     1  UNL1       -0.2934
      8 H         137.8176  144.8603  161.6106 H       1  UNL1        0.1236
      9 C         139.6720  145.6141  162.0192 C.3     1  UNL1        0.1152
     10 O         144.8085  139.8416  160.9974 O.2     1  UNL1       -0.2707
     11 C         144.3837  141.0915  161.7095 C.2     1  UNL1        0.2718
     12 C         145.2462  141.6672  162.7933 C.3     1  UNL1        0.2898
     13 O         144.8214  142.9172  163.5055 O.3     1  UNL1       -0.4628
     14 C         143.5341  143.5914  163.1339 C.ar    1  UNL1        0.1708
     15 C         143.1093  144.8413  163.8461 C.ar    1  UNL1        0.0411
     16 C         141.8219  145.5155  163.4746 C.ar    1  UNL1        0.0193
     17 C         140.9593  144.9399  162.3908 C.ar    1  UNL1        0.0765
     18 N         141.3841  143.6899  161.6786 N.ar    1  UNL1       -0.2304
     19 C         142.6716  143.0157  162.0502 C.ar    1  UNL1        0.1682
     20 N         143.0964  141.7658  161.3380 N.am    1  UNL1       -0.2639
     21 H         142.5302  141.3879  160.6267 H       1  UNL1        0.1565
     22 C         138.2742  139.9152  165.5995 C.3     1  UNL1        0.0970
     23 C         138.5397  138.6080  164.9134 C.3     1  UNL1        0.1264
     24 N         139.7297  138.4622  164.0119 N.ar    1  UNL1       -0.2926
     25 C         139.5354  138.1443  162.5589 C.ar    1  UNL1        0.2611
     26 O         138.1511  137.9722  162.0074 O.2     1  UNL1       -0.2670
     27 C         140.7253  137.9985  161.6574 C.ar    1  UNL1        0.0623
     28 C         142.1097  138.1707  162.2088 C.ar    1  UNL1        0.0255
     29 C         142.3040  138.4886  163.6618 C.ar    1  UNL1        0.0975
     30 N         143.6882  138.6608  164.2133 N.ar    1  UNL1       -0.2392
     31 C         143.8826  138.9787  165.6663 C.ar    1  UNL1        0.1363
     32 C         142.6926  139.1245  166.5678 C.ar    1  UNL1        0.1659
     33 C         141.3083  138.9523  166.0163 C.ar    1  UNL1        0.0579
     34 C         141.1140  138.6344  164.5634 C.ar    1  UNL1        0.0832
     35 O         142.8870  139.4424  168.0208 O.3     1  UNL1       -0.4502
     36 C         141.8556  140.2447  168.7574 C.ar    1  UNL1        0.1667
     37 C         141.2011  139.6801  169.9833 C.ar    1  UNL1        0.1364
     38 N         140.1697  140.4824  170.7200 N.ar    1  UNL1       -0.2368
     39 C         139.7928  141.8493  170.2307 C.ar    1  UNL1        0.1286
     40 C         140.4473  142.4139  169.0047 C.ar    1  UNL1        0.1623
     41 F         140.0704  143.7809  168.5154 F       1  UNL1       -0.2024
     42 C         141.4786  141.6116  168.2681 C.ar    1  UNL1        0.0703
@<TRIPOS>BOND
     1    10    11    2
     2    11    12    1
     3    12    13    1
     4    13    14    1
     5    14    15   ar
     6    15    16   ar
     7    16    17   ar
     8    17     9    1
     9     9     7    1
    10     7     1    1
    11     1     2    1
    12     2     3    1
    13     3     4    1
    14     4    22    1
    15    22    23    1
    16    23    24    1
    17    24    25   ar
    18    25    26    2
    19    25    27   ar
    20    27    28   ar
    21    28    29   ar
    22    29    30   ar
    23    30    31   ar
    24    31    32   ar
    25    32    35    1
    26    35    36    1
    27    36    37   ar
    28    37    38   ar
    29    38    39   ar
    30    39    40   ar
    31    40    41    1
    32    40    42   ar
    33    32    33   ar
    34    33    34   ar
    35     4     5    1
    36     5     6    1
    37    17    18   ar
    38    18    19   ar
    39    19    20    1
    40    20    11   am
    41    19    14   ar
    42     6     1    1
    43    34    24   ar
    44    34    29   ar
    45    42    36   ar
    46     7     8    1
    47    20    21    1
@<TRIPOS>MOLECULE
*****
 42 47 0 0 0
SMALL
GASTEIGER

@<TRIPOS>ATOM
      1 C         143.1218  143.3997  164.4400 C.3     1  UNL1        0.0570
      2 C         142.5711  144.2266  163.3162 C.3     1  UNL1        0.0331
      3 C         141.0979  144.4977  163.2364 C.3     1  UNL1        0.0735
      4 N         140.1755  143.9419  164.2805 N.3     1  UNL1       -0.2710
      5 C         140.7262  143.1151  165.4044 C.3     1  UNL1        0.0735
      6 C         142.1993  142.8440  165.4842 C.3     1  UNL1        0.0331
      7 N         144.5949  143.1287  164.5198 N.3     1  UNL1       -0.2934
      8 H         145.0311  143.6449  163.7559 H       1  UNL1        0.1236
      9 C         145.1039  141.7201  164.4366 C.3     1  UNL1        0.1152
     10 O         143.3822  138.8385  157.4023 O.2     1  UNL1       -0.2707
     11 C         143.2415  138.7924  158.8950 C.2     1  UNL1        0.2718
     12 C         142.3863  137.7397  159.5356 C.3     1  UNL1        0.2898
     13 O         142.2456  137.6936  161.0282 O.3     1  UNL1       -0.4628
     14 C         142.9601  138.7002  161.8803 C.ar    1  UNL1        0.1708
     15 C         142.8195  138.6541  163.3730 C.ar    1  UNL1        0.0411
     16 C         143.5340  139.6607  164.2251 C.ar    1  UNL1        0.0193
     17 C         144.3893  140.7135  163.5845 C.ar    1  UNL1        0.0765
     18 N         144.5300  140.7596  162.0919 N.ar    1  UNL1       -0.2304
     19 C         143.8154  139.7529  161.2398 C.ar    1  UNL1        0.1682
     20 N         143.9561  139.7990  159.7471 N.am    1  UNL1       -0.2639
     21 H         144.5174  140.4899  159.3267 H       1  UNL1        0.1565
     22 C         138.7024  144.2130  164.2007 C.3     1  UNL1        0.0970
     23 C         137.7309  143.0710  164.1586 C.3     1  UNL1        0.1264
     24 N         138.0393  141.8538  163.3380 N.ar    1  UNL1       -0.2926
     25 C         138.0903  141.9510  161.8420 C.ar    1  UNL1        0.2611
     26 O         137.8328  143.2654  161.1666 O.2     1  UNL1       -0.2670
     27 C         138.3988  140.7338  161.0214 C.ar    1  UNL1        0.0623
     28 C         138.6563  139.4194  161.6968 C.ar    1  UNL1        0.0255
     29 C         138.6054  139.3222  163.1928 C.ar    1  UNL1        0.0975
     30 N         138.8629  138.0079  163.8682 N.ar    1  UNL1       -0.2392
     31 C         138.8119  137.9107  165.3641 C.ar    1  UNL1        0.1363
     32 C         138.5035  139.1278  166.1847 C.ar    1  UNL1        0.1659
     33 C         138.2459  140.4422  165.5093 C.ar    1  UNL1        0.0579
     34 C         138.2969  140.5394  164.0134 C.ar    1  UNL1        0.0832
     35 O         138.4525  139.0306  167.6807 O.3     1  UNL1       -0.4502
     36 C         139.3629  139.8785  168.5188 C.ar    1  UNL1        0.1667
     37 C         138.8776  140.4366  169.8238 C.ar    1  UNL1        0.1364
     38 N         139.7879  141.2845  170.6619 N.ar    1  UNL1       -0.2368
     39 C         141.1836  141.5743  170.1950 C.ar    1  UNL1        0.1286
     40 C         141.6690  141.0162  168.8899 C.ar    1  UNL1        0.1623
     41 F         143.0647  141.3060  168.4230 F       1  UNL1       -0.2024
     42 C         140.7586  140.1683  168.0519 C.ar    1  UNL1        0.0703
@<TRIPOS>BOND
     1    10    11    2
     2    11    12    1
     3    12    13    1
     4    13    14    1
     5    14    15   ar
     6    15    16   ar
     7    16    17   ar
     8    17     9    1
     9     9     7    1
    10     7     1    1
    11     1     2    1
    12     2     3    1
    13     3     4    1
    14     4    22    1
    15    22    23    1
    16    23    24    1
    17    24    25   ar
    18    25    26    2
    19    25    27   ar
    20    27    28   ar
    21    28    29   ar
    22    29    30   ar
    23    30    31   ar
    24    31    32   ar
    25    32    35    1
    26    35    36    1
    27    36    37   ar
    28    37    38   ar
    29    38    39   ar
    30    39    40   ar
    31    40    41    1
    32    40    42   ar
    33    32    33   ar
    34    33    34   ar
    35     4     5    1
    36     5     6    1
    37    17    18   ar
    38    18    19   ar
    39    19    20    1
    40    20    11   am
    41    19    14   ar
    42     6     1    1
    43    34    24   ar
    44    34    29   ar
    45    42    36   ar
    46     7     8    1
    47    20    21    1
@<TRIPOS>MOLECULE
*****
 42 47 0 0 0
SMALL
GASTEIGER

@<TRIPOS>ATOM
      1 C         142.1181  137.9889  163.0579 C.3     1  UNL1        0.0570
      2 C         142.9639  138.4935  161.9266 C.3     1  UNL1        0.0331
      3 C         144.0980  139.4364  162.2005 C.3     1  UNL1        0.0735
      4 N         144.3861  139.8746  163.6059 N.3     1  UNL1       -0.2710
      5 C         143.5402  139.3700  164.7372 C.3     1  UNL1        0.0735
      6 C         142.4063  138.4271  164.4632 C.3     1  UNL1        0.0331
      7 N         140.9841  137.0461  162.7839 N.3     1  UNL1       -0.2934
      8 H         141.2537  136.4890  161.9731 H       1  UNL1        0.1236
      9 C         139.6125  137.5842  162.5029 C.3     1  UNL1        0.1152
     10 O         138.7468  145.3006  161.8254 O.2     1  UNL1       -0.2707
     11 C         138.6121  144.0443  162.6338 C.2     1  UNL1        0.2718
     12 C         138.0541  144.1038  164.0249 C.3     1  UNL1        0.2898
     13 O         137.9193  142.8475  164.8333 O.3     1  UNL1       -0.4628
     14 C         138.3426  141.5317  164.2507 C.ar    1  UNL1        0.1708
     15 C         138.2079  140.2754  165.0592 C.ar    1  UNL1        0.0411
     16 C         138.6311  138.9596  164.4766 C.ar    1  UNL1        0.0193
     17 C         139.1892  138.9000  163.0855 C.ar    1  UNL1        0.0765
     18 N         139.3239  140.1563  162.2770 N.ar    1  UNL1       -0.2304
     19 C         138.9006  141.4722  162.8597 C.ar    1  UNL1        0.1682
     20 N         139.0354  142.7285  162.0512 N.am    1  UNL1       -0.2639
     21 H         139.4016  142.6894  161.1382 H       1  UNL1        0.1565
     22 C         145.5201  140.8175  163.8799 C.3     1  UNL1        0.0970
     23 C         145.6326  142.0993  163.1091 C.3     1  UNL1        0.1264
     24 N         144.4899  143.0712  163.0990 N.ar    1  UNL1       -0.2926
     25 C         144.0877  143.7690  164.3644 C.ar    1  UNL1        0.2611
     26 O         144.8280  143.4949  165.6399 O.2     1  UNL1       -0.2670
     27 C         142.9451  144.7408  164.3543 C.ar    1  UNL1        0.0623
     28 C         142.2048  145.0148  163.0788 C.ar    1  UNL1        0.0255
     29 C         142.6070  144.3170  161.8134 C.ar    1  UNL1        0.0975
     30 N         141.8667  144.5910  160.5379 N.ar    1  UNL1       -0.2392
     31 C         142.2690  143.8932  159.2725 C.ar    1  UNL1        0.1363
     32 C         143.4115  142.9214  159.2826 C.ar    1  UNL1        0.1659
     33 C         144.1519  142.6473  160.5581 C.ar    1  UNL1        0.0579
     34 C         143.7496  143.3452  161.8235 C.ar    1  UNL1        0.0832
     35 O         143.8138  142.2236  158.0172 O.3     1  UNL1       -0.4502
     36 C         143.4341  140.7889  157.7986 C.ar    1  UNL1        0.1667
     37 C         144.1713  139.9640  156.7857 C.ar    1  UNL1        0.1364
     38 N         143.7916  138.5293  156.5671 N.ar    1  UNL1       -0.2368
     39 C         142.6747  137.9197  157.3614 C.ar    1  UNL1        0.1286
     40 C         141.9374  138.7448  158.3743 C.ar    1  UNL1        0.1623
     41 F         140.8205  138.1352  159.1685 F       1  UNL1       -0.2024
     42 C         142.3171  140.1794  158.5928 C.ar    1  UNL1        0.0703
@<TRIPOS>BOND
     1    10    11    2
     2    11    12    1
     3    12    13    1
     4    13    14    1
     5    14    15   ar
     6    15    16   ar
     7    16    17   ar
     8    17     9    1
     9     9     7    1
    10     7     1    1
    11     1     2    1
    12     2     3    1
    13     3     4    1
    14     4    22    1
    15    22    23    1
    16    23    24    1
    17    24    25   ar
    18    25    26    2
    19    25    27   ar
    20    27    28   ar
    21    28    29   ar
    22    29    30   ar
    23    30    31   ar
    24    31    32   ar
    25    32    35    1
    26    35    36    1
    27    36    37   ar
    28    37    38   ar
    29    38    39   ar
    30    39    40   ar
    31    40    41    1
    32    40    42   ar
    33    32    33   ar
    34    33    34   ar
    35     4     5    1
    36     5     6    1
    37    17    18   ar
    38    18    19   ar
    39    19    20    1
    40    20    11   am
    41    19    14   ar
    42     6     1    1
    43    34    24   ar
    44    34    29   ar
    45    42    36   ar
    46     7     8    1
    47    20    21    1
@<TRIPOS>MOLECULE
*****
 42 47 0 0 0
SMALL
GASTEIGER

@<TRIPOS>ATOM
      1 C         140.1547  144.1132  164.4417 C.3     1  UNL1        0.0570
      2 C         141.1911  143.8522  163.3892 C.3     1  UNL1        0.0331
      3 C         142.3426  142.9364  163.6812 C.3     1  UNL1        0.0735
      4 N         142.4578  142.2816  165.0258 N.3     1  UNL1       -0.2710
      5 C         141.4213  142.5425  166.0783 C.3     1  UNL1        0.0735
      6 C         140.2698  143.4583  165.7863 C.3     1  UNL1        0.0331
      7 N         139.0032  145.0290  164.1496 N.3     1  UNL1       -0.2934
      8 H         138.6825  145.3940  165.0464 H       1  UNL1        0.1236
      9 C         137.7915  144.5063  163.4364 C.3     1  UNL1        0.1152
     10 O         139.5538  141.2463  156.5796 O.2     1  UNL1       -0.2707
     11 C         139.0749  141.1159  157.9951 C.2     1  UNL1        0.2718
     12 C         138.7046  139.7686  158.5405 C.3     1  UNL1        0.2898
     13 O         138.2256  139.6383  159.9560 O.3     1  UNL1       -0.4628
     14 C         138.1171  140.8553  160.8261 C.ar    1  UNL1        0.1708
     15 C         137.6382  140.7250  162.2416 C.ar    1  UNL1        0.0411
     16 C         137.5296  141.9419  163.1117 C.ar    1  UNL1        0.0193
     17 C         137.9000  143.2894  162.5663 C.ar    1  UNL1        0.0765
     18 N         138.3789  143.4197  161.1508 N.ar    1  UNL1       -0.2304
     19 C         138.4875  142.2026  160.2807 C.ar    1  UNL1        0.1682
     20 N         138.9664  142.3329  158.8652 N.am    1  UNL1       -0.2639
     21 H         139.2094  143.2172  158.5072 H       1  UNL1        0.1565
     22 C         143.6093  141.3658  165.3179 C.3     1  UNL1        0.0970
     23 C         143.3680  139.8997  165.5235 C.3     1  UNL1        0.1264
     24 N         142.3245  139.1903  164.7124 N.ar    1  UNL1       -0.2926
     25 C         142.6555  138.6890  163.3379 C.ar    1  UNL1        0.2611
     26 O         144.0301  138.8972  162.7745 O.2     1  UNL1       -0.2670
     27 C         141.6121  137.9796  162.5268 C.ar    1  UNL1        0.0623
     28 C         140.2375  137.7715  163.0901 C.ar    1  UNL1        0.0255
     29 C         139.9065  138.2727  164.4646 C.ar    1  UNL1        0.0975
     30 N         138.5320  138.0646  165.0280 N.ar    1  UNL1       -0.2392
     31 C         138.2010  138.5658  166.4025 C.ar    1  UNL1        0.1363
     32 C         139.2444  139.2752  167.2136 C.ar    1  UNL1        0.1659
     33 C         140.6190  139.4834  166.6502 C.ar    1  UNL1        0.0579
     34 C         140.9500  138.9821  165.2757 C.ar    1  UNL1        0.0832
     35 O         138.9134  139.7764  168.5880 O.3     1  UNL1       -0.4502
     36 C         139.9298  140.5584  169.3662 C.ar    1  UNL1        0.1667
     37 C         140.9431  139.8418  170.2085 C.ar    1  UNL1        0.1364
     38 N         141.9596  140.6238  170.9866 N.ar    1  UNL1       -0.2368
     39 C         141.9626  142.1224  170.9223 C.ar    1  UNL1        0.1286
     40 C         140.9493  142.8391  170.0799 C.ar    1  UNL1        0.1623
     41 F         140.9523  144.3377  170.0156 F       1  UNL1       -0.2024
     42 C         139.9329  142.0570  169.3018 C.ar    1  UNL1        0.0703
@<TRIPOS>BOND
     1    10    11    2
     2    11    12    1
     3    12    13    1
     4    13    14    1
     5    14    15   ar
     6    15    16   ar
     7    16    17   ar
     8    17     9    1
     9     9     7    1
    10     7     1    1
    11     1     2    1
    12     2     3    1
    13     3     4    1
    14     4    22    1
    15    22    23    1
    16    23    24    1
    17    24    25   ar
    18    25    26    2
    19    25    27   ar
    20    27    28   ar
    21    28    29   ar
    22    29    30   ar
    23    30    31   ar
    24    31    32   ar
    25    32    35    1
    26    35    36    1
    27    36    37   ar
    28    37    38   ar
    29    38    39   ar
    30    39    40   ar
    31    40    41    1
    32    40    42   ar
    33    32    33   ar
    34    33    34   ar
    35     4     5    1
    36     5     6    1
    37    17    18   ar
    38    18    19   ar
    39    19    20    1
    40    20    11   am
    41    19    14   ar
    42     6     1    1
    43    34    24   ar
    44    34    29   ar
    45    42    36   ar
    46     7     8    1
    47    20    21    1
@<TRIPOS>MOLECULE
*****
 42 47 0 0 0
SMALL
GASTEIGER

@<TRIPOS>ATOM
      1 C         140.0081  138.1433  162.5165 C.3     1  UNL1        0.0570
      2 C         140.2732  138.2726  163.9872 C.3     1  UNL1        0.0331
      3 C         141.6529  138.6030  164.4744 C.3     1  UNL1        0.0735
      4 N         142.7675  138.8041  163.4909 N.3     1  UNL1       -0.2710
      5 C         142.5023  138.6749  162.0201 C.3     1  UNL1        0.0735
      6 C         141.1227  138.3445  161.5330 C.3     1  UNL1        0.0331
      7 N         138.6285  137.8129  162.0293 N.3     1  UNL1       -0.2934
      8 H         138.7178  136.9982  161.4222 H       1  UNL1        0.1236
      9 C         137.8369  138.8351  161.2685 C.3     1  UNL1        0.1152
     10 O         141.6378  145.3266  159.2283 O.2     1  UNL1       -0.2707
     11 C         140.6456  144.6240  160.1068 C.2     1  UNL1        0.2718
     12 C         139.9282  145.3825  161.1838 C.3     1  UNL1        0.2898
     13 O         138.9360  144.6798  162.0624 O.3     1  UNL1       -0.4628
     14 C         138.6612  143.2187  161.8639 C.ar    1  UNL1        0.1708
     15 C         137.6690  142.5160  162.7425 C.ar    1  UNL1        0.0411
     16 C         137.3942  141.0548  162.5440 C.ar    1  UNL1        0.0193
     17 C         138.1117  140.2962  161.4670 C.ar    1  UNL1        0.0765
     18 N         139.1038  140.9989  160.5884 N.ar    1  UNL1       -0.2304
     19 C         139.3786  142.4602  160.7869 C.ar    1  UNL1        0.1682
     20 N         140.3708  143.1628  159.9084 N.am    1  UNL1       -0.2639
     21 H         140.8417  142.6650  159.2015 H       1  UNL1        0.1565
     22 C         144.1471  139.1345  163.9781 C.3     1  UNL1        0.0970
     23 C         144.3907  140.4066  164.7346 C.3     1  UNL1        0.1264
     24 N         143.9860  141.7226  164.1391 N.ar    1  UNL1       -0.2926
     25 C         144.8605  142.3828  163.1146 C.ar    1  UNL1        0.2611
     26 O         146.1396  141.7270  162.6856 O.2     1  UNL1       -0.2670
     27 C         144.4559  143.6987  162.5191 C.ar    1  UNL1        0.0623
     28 C         143.1768  144.3545  162.9481 C.ar    1  UNL1        0.0255
     29 C         142.3024  143.6943  163.9725 C.ar    1  UNL1        0.0975
     30 N         141.0234  144.3501  164.4015 N.ar    1  UNL1       -0.2392
     31 C         140.1489  143.6899  165.4259 C.ar    1  UNL1        0.1363
     32 C         140.5535  142.3740  166.0214 C.ar    1  UNL1        0.1659
     33 C         141.8326  141.7182  165.5925 C.ar    1  UNL1        0.0579
     34 C         142.7070  142.3784  164.5680 C.ar    1  UNL1        0.0832
     35 O         139.6790  141.7139  167.0459 O.3     1  UNL1       -0.4502
     36 C         140.2303  141.3824  168.4010 C.ar    1  UNL1        0.1667
     37 C         139.8409  140.1008  169.0762 C.ar    1  UNL1        0.1364
     38 N         140.3922  139.7693  170.4313 N.ar    1  UNL1       -0.2368
     39 C         141.3330  140.7195  171.1112 C.ar    1  UNL1        0.1286
     40 C         141.7224  142.0011  170.4359 C.ar    1  UNL1        0.1623
     41 F         142.6632  142.9512  171.1158 F       1  UNL1       -0.2024
     42 C         141.1711  142.3325  169.0809 C.ar    1  UNL1        0.0703
@<TRIPOS>BOND
     1    10    11    2
     2    11    12    1
     3    12    13    1
     4    13    14    1
     5    14    15   ar
     6    15    16   ar
     7    16    17   ar
     8    17     9    1
     9     9     7    1
    10     7     1    1
    11     1     2    1
    12     2     3    1
    13     3     4    1
    14     4    22    1
    15    22    23    1
    16    23    24    1
    17    24    25   ar
    18    25    26    2
    19    25    27   ar
    20    27    28   ar
    21    28    29   ar
    22    29    30   ar
    23    30    31   ar
    24    31    32   ar
    25    32    35    1
    26    35    36    1
    27    36    37   ar
    28    37    38   ar
    29    38    39   ar
    30    39    40   ar
    31    40    41    1
    32    40    42   ar
    33    32    33   ar
    34    33    34   ar
    35     4     5    1
    36     5     6    1
    37    17    18   ar
    38    18    19   ar
    39    19    20    1
    40    20    11   am
    41    19    14   ar
    42     6     1    1
    43    34    24   ar
    44    34    29   ar
    45    42    36   ar
    46     7     8    1
    47    20    21    1
