@<TRIPOS>MOLECULE
*****
 41 45 0 0 0
SMALL
GASTEIGER

@<TRIPOS>ATOM
      1 C         140.2103  143.0735  158.1206 C.ar    1  UNL1        0.1383
      2 C         140.7494  143.9153  157.0023 C.ar    1  UNL1        0.0369
      3 C         141.0373  145.3698  157.2299 C.ar    1  UNL1        0.0028
      4 C         140.7859  145.9823  158.5759 C.ar    1  UNL1       -0.0041
      5 C         140.2468  145.1404  159.6942 C.ar    1  UNL1       -0.0186
      6 C         139.9590  143.6860  159.4665 C.ar    1  UNL1        0.0326
      7 O         139.9224  141.6191  157.8929 O.3     1  UNL1       -0.4751
      8 C         138.6754  141.0042  158.4560 C.3     1  UNL1        0.2118
      9 C         138.7734  139.9386  159.5072 C.3     1  UNL1        0.0960
     10 C         137.6332  141.6753  162.0239 C.3     1  UNL1        0.0738
     11 C         138.9769  141.0130  161.9464 C.ar    1  UNL1        0.1387
     12 O         140.0324  141.0327  163.0119 O.2     1  UNL1       -0.4392
     13 C         141.2088  140.2466  162.5137 C.ar    1  UNL1        0.2290
     14 N         140.8803  139.7411  161.1402 N.ar    1  UNL1       -0.2129
     15 C         139.5009  140.2147  160.7895 C.ar    1  UNL1        0.0960
     16 C         142.4889  140.0079  163.2584 C.ar    1  UNL1        0.0544
     17 C         143.7615  140.6461  162.7860 C.ar    1  UNL1        0.0047
     18 C         145.0415  140.4074  163.5307 C.ar    1  UNL1        0.0010
     19 C         145.0489  139.5305  164.7476 C.ar    1  UNL1        0.0114
     20 C         143.7763  138.8923  165.2199 C.ar    1  UNL1        0.0578
     21 CL        143.7838  138.0154  166.4369 Cl      1  UNL1       -0.0822
     22 C         142.4963  139.1310  164.4753 C.ar    1  UNL1        0.0160
     23 C         139.9955  145.7530  161.0401 C.3     1  UNL1        0.0376
     24 C         140.4052  145.0228  162.2847 C.3     1  UNL1        0.1052
     25 C         139.7027  144.5776  163.5331 C.2     1  UNL1        0.2315
     26 O         138.2996  144.6781  164.0538 O.2     1  UNL1       -0.2745
     27 N         140.9846  143.9902  164.0450 N.am    1  UNL1       -0.2546
     28 C         141.6870  144.4355  162.7966 C.3     1  UNL1        0.1249
     29 C         141.3942  143.2601  165.2896 C.ar    1  UNL1        0.0541
     30 C         142.8385  142.9300  165.5244 C.ar    1  UNL1        0.0146
     31 C         143.2481  142.1999  166.7690 C.ar    1  UNL1       -0.0030
     32 C         142.2135  141.7999  167.7788 C.ar    1  UNL1       -0.0227
     33 C         140.7693  142.1300  167.5440 C.ar    1  UNL1       -0.0030
     34 C         140.3597  142.8601  166.2993 C.ar    1  UNL1        0.0146
     35 C         142.6232  141.0698  169.0234 C.3     1  UNL1        0.0189
     36 C         141.7273  139.9268  168.6478 C.3     1  UNL1        0.0044
     37 C         143.5190  142.2127  169.3990 C.3     1  UNL1        0.0044
     38 C         143.0328  140.3396  170.2680 C.3     1  UNL1        0.0044
     39 C         143.0901  144.3350  162.2759 C.2     1  UNL1        0.0692
     40 O         144.2291  144.8937  163.0764 O.co2   1  UNL1       -0.5475
     41 O         143.3543  143.6758  160.9546 O.co2   1  UNL1       -0.5475
@<TRIPOS>UNITY_ATOM_ATTR
40 1
charge -1
@<TRIPOS>BOND
     1    10    11    1
     2    11    12   ar
     3    12    13   ar
     4    13    16    1
     5    16    17   ar
     6    17    18   ar
     7    18    19   ar
     8    19    20   ar
     9    20    21    1
    10    20    22   ar
    11    13    14   ar
    12    14    15   ar
    13    15     9    1
    14     9     8    1
    15     8     7    1
    16     7     1    1
    17     1     2   ar
    18     2     3   ar
    19     3     4   ar
    20     4     5   ar
    21     5    23    1
    22    24    23    1
    23    24    25    1
    24    25    26    2
    25    25    27   am
    26    27    29    1
    27    29    30   ar
    28    30    31   ar
    29    31    32   ar
    30    32    35    1
    31    35    36    1
    32    35    37    1
    33    35    38    1
    34    32    33   ar
    35    33    34   ar
    36    27    28    1
    37    28    39    1
    38    39    40   ar
    39    39    41   ar
    40     5     6   ar
    41    15    11   ar
    42     6     1   ar
    43    22    16   ar
    44    28    24    1
    45    34    29   ar
@<TRIPOS>MOLECULE
*****
 41 45 0 0 0
SMALL
GASTEIGER

@<TRIPOS>ATOM
      1 C         140.2983  139.9919  157.6995 C.ar    1  UNL1        0.1383
      2 C         140.1674  138.6589  157.0242 C.ar    1  UNL1        0.0369
      3 C         141.2282  137.6152  157.2127 C.ar    1  UNL1        0.0028
      4 C         142.4199  137.9046  158.0765 C.ar    1  UNL1       -0.0041
      5 C         142.5508  139.2376  158.7518 C.ar    1  UNL1       -0.0186
      6 C         141.4899  140.2812  158.5632 C.ar    1  UNL1        0.0326
      7 O         139.2375  141.0355  157.5109 O.3     1  UNL1       -0.4751
      8 C         138.3137  141.3788  158.6418 C.3     1  UNL1        0.2118
      9 C         138.6551  142.5031  159.5741 C.3     1  UNL1        0.0960
     10 C         141.6183  143.4484  160.5620 C.3     1  UNL1        0.0738
     11 C         140.6372  142.6439  161.3621 C.ar    1  UNL1        0.1387
     12 O         140.8458  142.1326  162.7567 O.2     1  UNL1       -0.4392
     13 C         139.6127  141.3821  163.1646 C.ar    1  UNL1        0.2290
     14 N         138.6420  141.4295  162.0221 N.ar    1  UNL1       -0.2129
     15 C         139.2751  142.2094  160.9080 C.ar    1  UNL1        0.0960
     16 C         139.3896  140.7033  164.4836 C.ar    1  UNL1        0.0544
     17 C         139.6151  141.4552  165.7617 C.ar    1  UNL1        0.0047
     18 C         139.3920  140.7764  167.0805 C.ar    1  UNL1        0.0010
     19 C         138.9433  139.3457  167.1212 C.ar    1  UNL1        0.0114
     20 C         138.7178  138.5937  165.8431 C.ar    1  UNL1        0.0578
     21 CL        138.2691  137.1630  165.8838 Cl      1  UNL1       -0.0822
     22 C         138.9409  139.2725  164.5243 C.ar    1  UNL1        0.0160
     23 C         143.7424  139.5270  159.6155 C.3     1  UNL1        0.0376
     24 C         143.5700  139.7110  161.0941 C.3     1  UNL1        0.1052
     25 C         144.2701  140.5112  162.1522 C.2     1  UNL1        0.2315
     26 O         145.4326  141.4589  162.1698 O.2     1  UNL1       -0.2745
     27 N         143.3262  139.9711  163.1854 N.am    1  UNL1       -0.2546
     28 C         142.6261  139.1709  162.1273 C.3     1  UNL1        0.1249
     29 C         143.1538  140.1551  164.6640 C.ar    1  UNL1        0.0541
     30 C         143.2447  141.5265  165.2648 C.ar    1  UNL1        0.0146
     31 C         143.0723  141.7105  166.7434 C.ar    1  UNL1       -0.0030
     32 C         142.8090  140.5231  167.6213 C.ar    1  UNL1       -0.0227
     33 C         142.7181  139.1516  167.0205 C.ar    1  UNL1       -0.0030
     34 C         142.8905  138.9678  165.5419 C.ar    1  UNL1        0.0146
     35 C         142.6366  140.7070  169.0999 C.3     1  UNL1        0.0189
     36 C         142.3595  139.2405  169.2501 C.3     1  UNL1        0.0044
     37 C         142.9137  142.1735  168.9498 C.3     1  UNL1        0.0044
     38 C         142.4642  140.8910  170.5786 C.3     1  UNL1        0.0044
     39 C         141.4636  138.2232  162.1097 C.2     1  UNL1        0.0692
     40 O         140.2725  138.5131  161.2451 O.co2   1  UNL1       -0.5475
     41 O         141.4920  136.9855  162.9567 O.co2   1  UNL1       -0.5475
@<TRIPOS>UNITY_ATOM_ATTR
40 1
charge -1
@<TRIPOS>BOND
     1    10    11    1
     2    11    12   ar
     3    12    13   ar
     4    13    16    1
     5    16    17   ar
     6    17    18   ar
     7    18    19   ar
     8    19    20   ar
     9    20    21    1
    10    20    22   ar
    11    13    14   ar
    12    14    15   ar
    13    15     9    1
    14     9     8    1
    15     8     7    1
    16     7     1    1
    17     1     2   ar
    18     2     3   ar
    19     3     4   ar
    20     4     5   ar
    21     5    23    1
    22    24    23    1
    23    24    25    1
    24    25    26    2
    25    25    27   am
    26    27    29    1
    27    29    30   ar
    28    30    31   ar
    29    31    32   ar
    30    32    35    1
    31    35    36    1
    32    35    37    1
    33    35    38    1
    34    32    33   ar
    35    33    34   ar
    36    27    28    1
    37    28    39    1
    38    39    40   ar
    39    39    41   ar
    40     5     6   ar
    41    15    11   ar
    42     6     1   ar
    43    22    16   ar
    44    28    24    1
    45    34    29   ar
@<TRIPOS>MOLECULE
*****
 41 45 0 0 0
SMALL
GASTEIGER

@<TRIPOS>ATOM
      1 C         141.5320  141.7679  157.8353 C.ar    1  UNL1        0.1383
      2 C         142.5826  142.4012  156.9720 C.ar    1  UNL1        0.0369
      3 C         144.0118  141.9597  157.0843 C.ar    1  UNL1        0.0028
      4 C         144.3903  140.8850  158.0599 C.ar    1  UNL1       -0.0041
      5 C         143.3397  140.2518  158.9232 C.ar    1  UNL1       -0.0186
      6 C         141.9105  140.6933  158.8108 C.ar    1  UNL1        0.0326
      7 O         140.1028  142.2094  157.7230 O.3     1  UNL1       -0.4751
      8 C         139.5322  143.1661  158.7276 C.3     1  UNL1        0.2118
      9 C         140.4275  143.8053  159.7473 C.3     1  UNL1        0.0960
     10 C         139.9265  146.1559  161.9548 C.3     1  UNL1        0.0738
     11 C         139.9347  144.6804  162.2245 C.ar    1  UNL1        0.1387
     12 O         139.7140  144.0262  163.5562 O.2     1  UNL1       -0.4392
     13 C         139.8080  142.5415  163.3645 C.ar    1  UNL1        0.2290
     14 N         140.0867  142.2780  161.9144 N.ar    1  UNL1       -0.2129
     15 C         140.1650  143.5999  161.2098 C.ar    1  UNL1        0.0960
     16 C         139.6508  141.5026  164.4351 C.ar    1  UNL1        0.0544
     17 C         139.6425  141.9089  165.8790 C.ar    1  UNL1        0.0047
     18 C         139.4853  140.8700  166.9495 C.ar    1  UNL1        0.0010
     19 C         139.3364  139.4249  166.5761 C.ar    1  UNL1        0.0114
     20 C         139.3447  139.0186  165.1322 C.ar    1  UNL1        0.0578
     21 CL        139.1958  137.5735  164.7588 Cl      1  UNL1       -0.0822
     22 C         139.5019  140.0575  164.0617 C.ar    1  UNL1        0.0160
     23 C         143.7182  139.1771  159.8987 C.3     1  UNL1        0.0376
     24 C         143.5637  139.4132  161.3719 C.3     1  UNL1        0.1052
     25 C         142.7825  138.7618  162.4743 C.2     1  UNL1        0.2315
     26 O         141.8321  137.6045  162.5601 O.2     1  UNL1       -0.2745
     27 N         143.3452  139.7471  163.4555 N.am    1  UNL1       -0.2546
     28 C         144.1265  140.3985  162.3531 C.3     1  UNL1        0.1249
     29 C         143.1907  139.9832  164.9287 C.ar    1  UNL1        0.0541
     30 C         142.9939  138.8221  165.8577 C.ar    1  UNL1        0.0146
     31 C         142.8394  139.0581  167.3309 C.ar    1  UNL1       -0.0030
     32 C         142.8817  140.4553  167.8751 C.ar    1  UNL1       -0.0227
     33 C         143.0785  141.6164  166.9461 C.ar    1  UNL1       -0.0030
     34 C         143.2330  141.3803  165.4729 C.ar    1  UNL1        0.0146
     35 C         142.7271  140.6914  169.3483 C.3     1  UNL1        0.0189
     36 C         143.0682  142.1388  169.1521 C.3     1  UNL1        0.0044
     37 C         142.3860  139.2439  169.5445 C.3     1  UNL1        0.0044
     38 C         142.5726  140.9274  170.8215 C.3     1  UNL1        0.0044
     39 C         145.0769  141.5558  162.2673 C.2     1  UNL1        0.0692
     40 O         144.9346  142.5631  161.1648 O.co2   1  UNL1       -0.5475
     41 O         146.1695  141.7060  163.2839 O.co2   1  UNL1       -0.5475
@<TRIPOS>UNITY_ATOM_ATTR
40 1
charge -1
@<TRIPOS>BOND
     1    10    11    1
     2    11    12   ar
     3    12    13   ar
     4    13    16    1
     5    16    17   ar
     6    17    18   ar
     7    18    19   ar
     8    19    20   ar
     9    20    21    1
    10    20    22   ar
    11    13    14   ar
    12    14    15   ar
    13    15     9    1
    14     9     8    1
    15     8     7    1
    16     7     1    1
    17     1     2   ar
    18     2     3   ar
    19     3     4   ar
    20     4     5   ar
    21     5    23    1
    22    24    23    1
    23    24    25    1
    24    25    26    2
    25    25    27   am
    26    27    29    1
    27    29    30   ar
    28    30    31   ar
    29    31    32   ar
    30    32    35    1
    31    35    36    1
    32    35    37    1
    33    35    38    1
    34    32    33   ar
    35    33    34   ar
    36    27    28    1
    37    28    39    1
    38    39    40   ar
    39    39    41   ar
    40     5     6   ar
    41    15    11   ar
    42     6     1   ar
    43    22    16   ar
    44    28    24    1
    45    34    29   ar
@<TRIPOS>MOLECULE
*****
 41 45 0 0 0
SMALL
GASTEIGER

@<TRIPOS>ATOM
      1 C         141.7624  142.5287  158.3222 C.ar    1  UNL1        0.1383
      2 C         142.7037  143.0306  157.2677 C.ar    1  UNL1        0.0369
      3 C         144.0747  142.4351  157.1412 C.ar    1  UNL1        0.0028
      4 C         144.5042  141.3377  158.0692 C.ar    1  UNL1       -0.0041
      5 C         143.5629  140.8358  159.1237 C.ar    1  UNL1       -0.0186
      6 C         142.1920  141.4313  159.2501 C.ar    1  UNL1        0.0326
      7 O         140.3915  143.1242  158.4487 O.3     1  UNL1       -0.4751
      8 C         139.7421  143.2320  159.7965 C.3     1  UNL1        0.2118
      9 C         140.4117  144.0077  160.8918 C.3     1  UNL1        0.0960
     10 C         141.7306  145.4695  163.4944 C.3     1  UNL1        0.0738
     11 C         140.9849  144.1679  163.4978 C.ar    1  UNL1        0.1387
     12 O         140.7146  143.3098  164.6979 O.2     1  UNL1       -0.4392
     13 C         139.9413  142.1075  164.2434 C.ar    1  UNL1        0.2290
     14 N         139.7337  142.2226  162.7623 N.ar    1  UNL1       -0.2129
     15 C         140.3787  143.4960  162.3015 C.ar    1  UNL1        0.0960
     16 C         139.4601  140.9868  165.1167 C.ar    1  UNL1        0.0544
     17 C         138.8745  139.7522  164.4980 C.ar    1  UNL1        0.0047
     18 C         138.3934  138.6316  165.3714 C.ar    1  UNL1        0.0010
     19 C         138.4977  138.7457  166.8634 C.ar    1  UNL1        0.0114
     20 C         139.0832  139.9803  167.4821 C.ar    1  UNL1        0.0578
     21 CL        139.1875  140.0943  168.9741 Cl      1  UNL1       -0.0822
     22 C         139.5644  141.1008  166.6088 C.ar    1  UNL1        0.0160
     23 C         143.9924  139.7384  160.0517 C.3     1  UNL1        0.0376
     24 C         143.7745  139.8774  161.5292 C.3     1  UNL1        0.1052
     25 C         144.4874  140.5827  162.6448 C.2     1  UNL1        0.2315
     26 O         145.7134  141.4410  162.7449 O.2     1  UNL1       -0.2745
     27 N         143.4663  140.0740  163.6189 N.am    1  UNL1       -0.2546
     28 C         142.7535  139.3688  162.5033 C.3     1  UNL1        0.1249
     29 C         143.2484  140.2130  165.0965 C.ar    1  UNL1        0.0541
     30 C         143.0283  138.9925  165.9402 C.ar    1  UNL1        0.0146
     31 C         142.8104  139.1316  167.4177 C.ar    1  UNL1       -0.0030
     32 C         142.8126  140.4911  168.0515 C.ar    1  UNL1       -0.0227
     33 C         143.0328  141.7116  167.2078 C.ar    1  UNL1       -0.0030
     34 C         143.2507  141.5725  165.7302 C.ar    1  UNL1        0.0146
     35 C         142.5947  140.6301  169.5291 C.3     1  UNL1        0.0189
     36 C         142.4877  139.1391  169.6536 C.3     1  UNL1        0.0044
     37 C         142.7018  142.1211  169.4046 C.3     1  UNL1        0.0044
     38 C         142.3768  140.7691  171.0066 C.3     1  UNL1        0.0044
     39 C         141.5274  138.5105  162.4033 C.2     1  UNL1        0.0692
     40 O         140.4424  138.8631  161.4292 O.co2   1  UNL1       -0.5475
     41 O         141.3862  137.2996  163.2772 O.co2   1  UNL1       -0.5475
@<TRIPOS>UNITY_ATOM_ATTR
40 1
charge -1
@<TRIPOS>BOND
     1    10    11    1
     2    11    12   ar
     3    12    13   ar
     4    13    16    1
     5    16    17   ar
     6    17    18   ar
     7    18    19   ar
     8    19    20   ar
     9    20    21    1
    10    20    22   ar
    11    13    14   ar
    12    14    15   ar
    13    15     9    1
    14     9     8    1
    15     8     7    1
    16     7     1    1
    17     1     2   ar
    18     2     3   ar
    19     3     4   ar
    20     4     5   ar
    21     5    23    1
    22    24    23    1
    23    24    25    1
    24    25    26    2
    25    25    27   am
    26    27    29    1
    27    29    30   ar
    28    30    31   ar
    29    31    32   ar
    30    32    35    1
    31    35    36    1
    32    35    37    1
    33    35    38    1
    34    32    33   ar
    35    33    34   ar
    36    27    28    1
    37    28    39    1
    38    39    40   ar
    39    39    41   ar
    40     5     6   ar
    41    15    11   ar
    42     6     1   ar
    43    22    16   ar
    44    28    24    1
    45    34    29   ar
@<TRIPOS>MOLECULE
*****
 41 45 0 0 0
SMALL
GASTEIGER

@<TRIPOS>ATOM
      1 C         139.9440  143.3299  156.8425 C.ar    1  UNL1        0.1383
      2 C         141.0582  143.8825  156.0039 C.ar    1  UNL1        0.0369
      3 C         141.9415  144.9653  156.5493 C.ar    1  UNL1        0.0028
      4 C         141.7106  145.4953  157.9335 C.ar    1  UNL1       -0.0041
      5 C         140.5965  144.9427  158.7721 C.ar    1  UNL1       -0.0186
      6 C         139.7132  143.8599  158.2265 C.ar    1  UNL1        0.0326
      7 O         139.0608  142.2472  156.2970 O.3     1  UNL1       -0.4751
      8 C         138.8752  140.9723  157.0654 C.3     1  UNL1        0.2118
      9 C         140.0664  140.1381  157.4331 C.3     1  UNL1        0.0960
     10 C         142.6729  141.7011  158.6219 C.3     1  UNL1        0.0738
     11 C         141.7434  140.8181  159.4005 C.ar    1  UNL1        0.1387
     12 O         141.8486  140.4985  160.8623 O.2     1  UNL1       -0.4392
     13 C         140.7157  139.5825  161.2193 C.ar    1  UNL1        0.2290
     14 N         139.9102  139.3360  159.9782 N.ar    1  UNL1       -0.2129
     15 C         140.5453  140.0997  158.8541 C.ar    1  UNL1        0.0960
     16 C         140.4372  139.0130  162.5788 C.ar    1  UNL1        0.0544
     17 C         141.2124  137.8256  163.0677 C.ar    1  UNL1        0.0047
     18 C         140.9339  137.2562  164.4272 C.ar    1  UNL1        0.0010
     19 C         139.8801  137.8741  165.2976 C.ar    1  UNL1        0.0114
     20 C         139.1049  139.0614  164.8087 C.ar    1  UNL1        0.0578
     21 CL        138.0511  139.6793  165.6792 Cl      1  UNL1       -0.0822
     22 C         139.3834  139.6309  163.4493 C.ar    1  UNL1        0.0160
     23 C         140.3656  145.4727  160.1561 C.3     1  UNL1        0.0376
     24 C         140.6578  144.6102  161.3480 C.3     1  UNL1        0.1052
     25 C         141.8787  144.3094  162.1659 C.2     1  UNL1        0.2315
     26 O         143.3131  144.7466  162.1307 O.2     1  UNL1       -0.2745
     27 N         141.0710  143.3903  163.0337 N.am    1  UNL1       -0.2546
     28 C         139.8501  143.6910  162.2157 C.3     1  UNL1        0.1249
     29 C         141.3632  142.5277  164.2256 C.ar    1  UNL1        0.0541
     30 C         142.4554  141.5017  164.1592 C.ar    1  UNL1        0.0146
     31 C         142.7476  140.6392  165.3511 C.ar    1  UNL1       -0.0030
     32 C         141.9475  140.8026  166.6093 C.ar    1  UNL1       -0.0227
     33 C         140.8553  141.8286  166.6757 C.ar    1  UNL1       -0.0030
     34 C         140.5632  142.6911  165.4838 C.ar    1  UNL1        0.0146
     35 C         142.2397  139.9401  167.8012 C.3     1  UNL1        0.0189
     36 C         143.0351  139.0104  166.9334 C.3     1  UNL1        0.0044
     37 C         141.4443  140.8697  168.6690 C.3     1  UNL1        0.0044
     38 C         142.5319  139.0775  168.9931 C.3     1  UNL1        0.0044
     39 C         138.4157  143.2538  162.2510 C.2     1  UNL1        0.0692
     40 O         137.7138  142.8809  160.9788 O.co2   1  UNL1       -0.5475
     41 O         137.6831  143.1894  163.5583 O.co2   1  UNL1       -0.5475
@<TRIPOS>UNITY_ATOM_ATTR
40 1
charge -1
@<TRIPOS>BOND
     1    10    11    1
     2    11    12   ar
     3    12    13   ar
     4    13    16    1
     5    16    17   ar
     6    17    18   ar
     7    18    19   ar
     8    19    20   ar
     9    20    21    1
    10    20    22   ar
    11    13    14   ar
    12    14    15   ar
    13    15     9    1
    14     9     8    1
    15     8     7    1
    16     7     1    1
    17     1     2   ar
    18     2     3   ar
    19     3     4   ar
    20     4     5   ar
    21     5    23    1
    22    24    23    1
    23    24    25    1
    24    25    26    2
    25    25    27   am
    26    27    29    1
    27    29    30   ar
    28    30    31   ar
    29    31    32   ar
    30    32    35    1
    31    35    36    1
    32    35    37    1
    33    35    38    1
    34    32    33   ar
    35    33    34   ar
    36    27    28    1
    37    28    39    1
    38    39    40   ar
    39    39    41   ar
    40     5     6   ar
    41    15    11   ar
    42     6     1   ar
    43    22    16   ar
    44    28    24    1
    45    34    29   ar
@<TRIPOS>MOLECULE
*****
 41 45 0 0 0
SMALL
GASTEIGER

@<TRIPOS>ATOM
      1 C         142.4734  138.3686  159.1866 C.ar    1  UNL1        0.1383
      2 C         142.2753  137.8106  157.8084 C.ar    1  UNL1        0.0369
      3 C         140.8958  137.7236  157.2256 C.ar    1  UNL1        0.0028
      4 C         139.7146  138.1947  158.0212 C.ar    1  UNL1       -0.0041
      5 C         139.9127  138.7527  159.3993 C.ar    1  UNL1       -0.0186
      6 C         141.2922  138.8396  159.9820 C.ar    1  UNL1        0.0326
      7 O         143.8528  138.4556  159.7693 O.3     1  UNL1       -0.4751
      8 C         144.0597  138.2506  161.2408 C.3     1  UNL1        0.2118
      9 C         142.8950  138.3405  162.1816 C.3     1  UNL1        0.0960
     10 C         142.6109  141.5647  161.7645 C.3     1  UNL1        0.0738
     11 C         142.7571  140.8551  163.0779 C.ar    1  UNL1        0.1387
     12 O         142.7985  141.5028  164.4302 O.2     1  UNL1       -0.4392
     13 C         142.9546  140.4211  165.4577 C.ar    1  UNL1        0.2290
     14 N         143.0097  139.1049  164.7405 N.ar    1  UNL1       -0.2129
     15 C         142.8877  139.3731  163.2697 C.ar    1  UNL1        0.0960
     16 C         143.0404  140.6207  166.9420 C.ar    1  UNL1        0.0544
     17 C         143.4026  141.9659  167.4981 C.ar    1  UNL1        0.0047
     18 C         143.4885  142.1654  168.9822 C.ar    1  UNL1        0.0010
     19 C         143.2121  141.0198  169.9103 C.ar    1  UNL1        0.0114
     20 C         142.8499  139.6747  169.3541 C.ar    1  UNL1        0.0578
     21 CL        142.5736  138.5291  170.2822 Cl      1  UNL1       -0.0822
     22 C         142.7641  139.4751  167.8700 C.ar    1  UNL1        0.0160
     23 C         138.7315  139.2237  160.1947 C.3     1  UNL1        0.0376
     24 C         138.9110  139.6554  161.6200 C.3     1  UNL1        0.1052
     25 C         139.2630  138.9612  162.9022 C.2     1  UNL1        0.2315
     26 O         139.5814  137.5477  163.2903 O.2     1  UNL1       -0.2745
     27 N         139.1648  140.2660  163.6357 N.am    1  UNL1       -0.2546
     28 C         138.8128  140.9602  162.3535 C.3     1  UNL1        0.1249
     29 C         139.3443  140.6977  165.0610 C.ar    1  UNL1        0.0541
     30 C         139.6935  142.1223  165.3748 C.ar    1  UNL1        0.0146
     31 C         139.8730  142.5540  166.8001 C.ar    1  UNL1       -0.0030
     32 C         139.7033  141.5610  167.9115 C.ar    1  UNL1       -0.0227
     33 C         139.3541  140.1364  167.5977 C.ar    1  UNL1       -0.0030
     34 C         139.1746  139.7048  166.1724 C.ar    1  UNL1        0.0146
     35 C         139.8828  141.9927  169.3368 C.3     1  UNL1        0.0189
     36 C         139.4694  140.6280  169.8022 C.3     1  UNL1        0.0044
     37 C         140.2962  143.3574  168.8714 C.3     1  UNL1        0.0044
     38 C         140.0623  142.4244  170.7620 C.3     1  UNL1        0.0044
     39 C         138.4944  142.3737  161.9654 C.2     1  UNL1        0.0692
     40 O         137.3492  143.0906  162.6171 O.co2   1  UNL1       -0.5475
     41 O         139.3213  143.0704  160.9257 O.co2   1  UNL1       -0.5475
@<TRIPOS>UNITY_ATOM_ATTR
40 1
charge -1
@<TRIPOS>BOND
     1    10    11    1
     2    11    12   ar
     3    12    13   ar
     4    13    16    1
     5    16    17   ar
     6    17    18   ar
     7    18    19   ar
     8    19    20   ar
     9    20    21    1
    10    20    22   ar
    11    13    14   ar
    12    14    15   ar
    13    15     9    1
    14     9     8    1
    15     8     7    1
    16     7     1    1
    17     1     2   ar
    18     2     3   ar
    19     3     4   ar
    20     4     5   ar
    21     5    23    1
    22    24    23    1
    23    24    25    1
    24    25    26    2
    25    25    27   am
    26    27    29    1
    27    29    30   ar
    28    30    31   ar
    29    31    32   ar
    30    32    35    1
    31    35    36    1
    32    35    37    1
    33    35    38    1
    34    32    33   ar
    35    33    34   ar
    36    27    28    1
    37    28    39    1
    38    39    40   ar
    39    39    41   ar
    40     5     6   ar
    41    15    11   ar
    42     6     1   ar
    43    22    16   ar
    44    28    24    1
    45    34    29   ar
@<TRIPOS>MOLECULE
*****
 41 45 0 0 0
SMALL
GASTEIGER

@<TRIPOS>ATOM
      1 C         139.9950  143.0413  157.4130 C.ar    1  UNL1        0.1383
      2 C         141.0187  143.4616  156.4003 C.ar    1  UNL1        0.0369
      3 C         141.9514  144.5966  156.7033 C.ar    1  UNL1        0.0028
      4 C         141.8604  145.3113  158.0189 C.ar    1  UNL1       -0.0041
      5 C         140.8367  144.8911  159.0316 C.ar    1  UNL1       -0.0186
      6 C         139.9040  143.7560  158.7285 C.ar    1  UNL1        0.0326
      7 O         139.0623  141.9063  157.1100 O.3     1  UNL1       -0.4751
      8 C         138.3952  141.1643  158.2300 C.3     1  UNL1        0.2118
      9 C         139.0428  139.9423  158.8106 C.3     1  UNL1        0.0960
     10 C         137.3865  140.0356  161.6210 C.3     1  UNL1        0.0738
     11 C         138.8796  140.0348  161.4771 C.ar    1  UNL1        0.1387
     12 O         139.8736  140.0767  162.5997 O.2     1  UNL1       -0.4392
     13 C         141.2492  140.0597  162.0018 C.ar    1  UNL1        0.2290
     14 N         141.1054  140.0073  160.5096 N.ar    1  UNL1       -0.2129
     15 C         139.6409  139.9919  160.1853 C.ar    1  UNL1        0.0960
     16 C         142.5417  140.0898  162.7625 C.ar    1  UNL1        0.0544
     17 C         143.6798  140.9361  162.2743 C.ar    1  UNL1        0.0047
     18 C         144.9722  140.9662  163.0350 C.ar    1  UNL1        0.0010
     19 C         145.1264  140.1500  164.2840 C.ar    1  UNL1        0.0114
     20 C         143.9883  139.3037  164.7723 C.ar    1  UNL1        0.0578
     21 CL        144.1426  138.4875  166.0213 Cl      1  UNL1       -0.0822
     22 C         142.6959  139.2736  164.0116 C.ar    1  UNL1        0.0160
     23 C         140.7457  145.6058  160.3471 C.3     1  UNL1        0.0376
     24 C         141.0205  144.8664  161.6230 C.3     1  UNL1        0.1052
     25 C         142.2575  144.4530  162.3640 C.2     1  UNL1        0.2315
     26 O         143.7319  144.6079  162.1362 O.2     1  UNL1       -0.2745
     27 N         141.4092  143.8207  163.4274 N.am    1  UNL1       -0.2546
     28 C         140.1723  144.2340  162.6863 C.3     1  UNL1        0.1249
     29 C         141.6840  143.0813  164.7032 C.ar    1  UNL1        0.0541
     30 C         140.6049  142.2560  165.3391 C.ar    1  UNL1        0.0146
     31 C         140.8797  141.5166  166.6149 C.ar    1  UNL1       -0.0030
     32 C         142.2337  141.6025  167.2548 C.ar    1  UNL1       -0.0227
     33 C         143.3128  142.4277  166.6189 C.ar    1  UNL1       -0.0030
     34 C         143.0379  143.1671  165.3430 C.ar    1  UNL1        0.0146
     35 C         142.5085  140.8631  168.5306 C.3     1  UNL1        0.0189
     36 C         143.3526  142.0061  169.0112 C.3     1  UNL1        0.0044
     37 C         141.6644  139.7201  168.0501 C.3     1  UNL1        0.0044
     38 C         142.7833  140.1237  169.8064 C.3     1  UNL1        0.0044
     39 C         138.6978  144.0791  162.9142 C.2     1  UNL1        0.0692
     40 O         138.1000  144.4536  164.2380 O.co2   1  UNL1       -0.5475
     41 O         137.8210  143.5498  161.8182 O.co2   1  UNL1       -0.5475
@<TRIPOS>UNITY_ATOM_ATTR
40 1
charge -1
@<TRIPOS>BOND
     1    10    11    1
     2    11    12   ar
     3    12    13   ar
     4    13    16    1
     5    16    17   ar
     6    17    18   ar
     7    18    19   ar
     8    19    20   ar
     9    20    21    1
    10    20    22   ar
    11    13    14   ar
    12    14    15   ar
    13    15     9    1
    14     9     8    1
    15     8     7    1
    16     7     1    1
    17     1     2   ar
    18     2     3   ar
    19     3     4   ar
    20     4     5   ar
    21     5    23    1
    22    24    23    1
    23    24    25    1
    24    25    26    2
    25    25    27   am
    26    27    29    1
    27    29    30   ar
    28    30    31   ar
    29    31    32   ar
    30    32    35    1
    31    35    36    1
    32    35    37    1
    33    35    38    1
    34    32    33   ar
    35    33    34   ar
    36    27    28    1
    37    28    39    1
    38    39    40   ar
    39    39    41   ar
    40     5     6   ar
    41    15    11   ar
    42     6     1   ar
    43    22    16   ar
    44    28    24    1
    45    34    29   ar
@<TRIPOS>MOLECULE
*****
 41 45 0 0 0
SMALL
GASTEIGER

@<TRIPOS>ATOM
      1 C         143.1271  140.4281  158.0059 C.ar    1  UNL1        0.1383
      2 C         142.2743  139.3628  157.3832 C.ar    1  UNL1        0.0369
      3 C         142.0786  138.0523  158.0864 C.ar    1  UNL1        0.0028
      4 C         142.7358  137.8073  159.4123 C.ar    1  UNL1       -0.0041
      5 C         143.5886  138.8726  160.0350 C.ar    1  UNL1       -0.0186
      6 C         143.7842  140.1830  159.3317 C.ar    1  UNL1        0.0326
      7 O         143.3227  141.7385  157.3027 O.3     1  UNL1       -0.4751
      8 C         143.7158  142.9574  158.0836 C.3     1  UNL1        0.2118
      9 C         142.7430  144.0868  158.2512 C.3     1  UNL1        0.0960
     10 C         139.9018  143.7668  156.6778 C.3     1  UNL1        0.0738
     11 C         140.1009  143.6907  158.1626 C.ar    1  UNL1        0.1387
     12 O         139.0290  143.4543  159.1849 O.2     1  UNL1       -0.4392
     13 C         139.6725  143.4552  160.5399 C.ar    1  UNL1        0.2290
     14 N         141.1420  143.6923  160.3551 N.ar    1  UNL1       -0.2129
     15 C         141.4068  143.8378  158.8858 C.ar    1  UNL1        0.0960
     16 C         138.9697  143.2543  161.8499 C.ar    1  UNL1        0.0544
     17 C         138.0276  142.1005  162.0264 C.ar    1  UNL1        0.0047
     18 C         137.3249  141.8997  163.3362 C.ar    1  UNL1        0.0010
     19 C         137.5642  142.8527  164.4696 C.ar    1  UNL1        0.0114
     20 C         138.5063  144.0065  164.2931 C.ar    1  UNL1        0.0578
     21 CL        138.7456  144.9595  165.4264 Cl      1  UNL1       -0.0822
     22 C         139.2090  144.2074  162.9832 C.ar    1  UNL1        0.0160
     23 C         144.2457  138.6275  161.3609 C.3     1  UNL1        0.0376
     24 C         143.6163  139.1505  162.6180 C.3     1  UNL1        0.1052
     25 C         143.8961  140.2934  163.5482 C.2     1  UNL1        0.2315
     26 O         144.9212  141.3869  163.6066 O.2     1  UNL1       -0.2745
     27 N         142.7261  139.8900  164.3959 N.am    1  UNL1       -0.2546
     28 C         142.4463  138.7471  163.4657 C.3     1  UNL1        0.1249
     29 C         142.0967  140.4130  165.6530 C.ar    1  UNL1        0.0541
     30 C         141.0266  141.4613  165.5760 C.ar    1  UNL1        0.0146
     31 C         140.3972  141.9842  166.8331 C.ar    1  UNL1       -0.0030
     32 C         140.8379  141.4589  168.1672 C.ar    1  UNL1       -0.0227
     33 C         141.9079  140.4106  168.2442 C.ar    1  UNL1       -0.0030
     34 C         142.5373  139.8877  166.9870 C.ar    1  UNL1        0.0146
     35 C         140.2084  141.9818  169.4243 C.3     1  UNL1        0.0189
     36 C         140.9254  143.2865  169.2406 C.3     1  UNL1        0.0044
     37 C         139.4914  140.6772  169.6080 C.3     1  UNL1        0.0044
     38 C         139.5790  142.5048  170.6814 C.3     1  UNL1        0.0044
     39 C         141.4212  137.6536  163.4073 C.2     1  UNL1        0.0692
     40 O         141.1142  136.8470  164.6342 O.co2   1  UNL1       -0.5475
     41 O         140.7031  137.3667  162.1220 O.co2   1  UNL1       -0.5475
@<TRIPOS>UNITY_ATOM_ATTR
40 1
charge -1
@<TRIPOS>BOND
     1    10    11    1
     2    11    12   ar
     3    12    13   ar
     4    13    16    1
     5    16    17   ar
     6    17    18   ar
     7    18    19   ar
     8    19    20   ar
     9    20    21    1
    10    20    22   ar
    11    13    14   ar
    12    14    15   ar
    13    15     9    1
    14     9     8    1
    15     8     7    1
    16     7     1    1
    17     1     2   ar
    18     2     3   ar
    19     3     4   ar
    20     4     5   ar
    21     5    23    1
    22    24    23    1
    23    24    25    1
    24    25    26    2
    25    25    27   am
    26    27    29    1
    27    29    30   ar
    28    30    31   ar
    29    31    32   ar
    30    32    35    1
    31    35    36    1
    32    35    37    1
    33    35    38    1
    34    32    33   ar
    35    33    34   ar
    36    27    28    1
    37    28    39    1
    38    39    40   ar
    39    39    41   ar
    40     5     6   ar
    41    15    11   ar
    42     6     1   ar
    43    22    16   ar
    44    28    24    1
    45    34    29   ar
@<TRIPOS>MOLECULE
*****
 41 45 0 0 0
SMALL
GASTEIGER

@<TRIPOS>ATOM
      1 C         139.1982  141.9827  158.0666 C.ar    1  UNL1        0.1383
      2 C         140.1606  141.1185  157.3072 C.ar    1  UNL1        0.0369
      3 C         140.3558  139.6851  157.7042 C.ar    1  UNL1        0.0028
      4 C         139.5884  139.1162  158.8607 C.ar    1  UNL1       -0.0041
      5 C         138.6260  139.9804  159.6202 C.ar    1  UNL1       -0.0186
      6 C         138.4309  141.4137  159.2231 C.ar    1  UNL1        0.0326
      7 O         139.0030  143.4159  157.6696 O.3     1  UNL1       -0.4751
      8 C         140.0477  144.4373  158.0096 C.3     1  UNL1        0.2118
      9 C         140.1721  144.9433  159.4162 C.3     1  UNL1        0.0960
     10 C         139.0895  145.0872  162.4914 C.3     1  UNL1        0.0738
     11 C         140.0372  144.0651  161.9372 C.ar    1  UNL1        0.1387
     12 O         140.6536  142.9295  162.6992 O.2     1  UNL1       -0.4392
     13 C         141.5321  142.1616  161.7566 C.ar    1  UNL1        0.2290
     14 N         141.4587  142.8225  160.4121 N.ar    1  UNL1       -0.2129
     15 C         140.5348  143.9989  160.5237 C.ar    1  UNL1        0.0960
     16 C         142.3419  140.9461  162.0986 C.ar    1  UNL1        0.0544
     17 C         142.8453  140.0488  161.0072 C.ar    1  UNL1        0.0047
     18 C         143.6550  138.8334  161.3492 C.ar    1  UNL1        0.0010
     19 C         143.9615  138.5153  162.7827 C.ar    1  UNL1        0.0114
     20 C         143.4582  139.4127  163.8742 C.ar    1  UNL1        0.0578
     21 CL        143.7646  139.0946  165.3077 Cl      1  UNL1       -0.0822
     22 C         142.6484  140.6281  163.5322 C.ar    1  UNL1        0.0160
     23 C         137.8587  139.4114  160.7766 C.3     1  UNL1        0.0376
     24 C         138.2686  139.7380  162.1820 C.3     1  UNL1        0.1052
     25 C         137.9054  140.8047  163.1721 C.2     1  UNL1        0.2315
     26 O         136.9818  141.9866  163.1668 O.2     1  UNL1       -0.2745
     27 N         138.8483  140.1999  164.1697 N.am    1  UNL1       -0.2546
     28 C         139.2116  139.1332  163.1796 C.3     1  UNL1        0.1249
     29 C         139.2582  140.5266  165.5752 C.ar    1  UNL1        0.0541
     30 C         138.9274  139.5812  166.6918 C.ar    1  UNL1        0.0146
     31 C         139.3373  139.9078  168.0972 C.ar    1  UNL1       -0.0030
     32 C         140.0780  141.1798  168.3861 C.ar    1  UNL1       -0.0227
     33 C         140.4088  142.1252  167.2695 C.ar    1  UNL1       -0.0030
     34 C         139.9989  141.7985  165.8640 C.ar    1  UNL1        0.0146
     35 C         140.4879  141.5064  169.7915 C.3     1  UNL1        0.0189
     36 C         140.3948  142.9704  169.4784 C.3     1  UNL1        0.0044
     37 C         140.5809  140.0424  170.1046 C.3     1  UNL1        0.0044
     38 C         140.8978  141.8331  171.1969 C.3     1  UNL1        0.0044
     39 C         140.1352  137.9514  163.1850 C.2     1  UNL1        0.0692
     40 O         140.6071  137.3624  161.8886 O.co2   1  UNL1       -0.5475
     41 O         140.5870  137.3584  164.4866 O.co2   1  UNL1       -0.5475
@<TRIPOS>UNITY_ATOM_ATTR
40 1
charge -1
@<TRIPOS>BOND
     1    10    11    1
     2    11    12   ar
     3    12    13   ar
     4    13    16    1
     5    16    17   ar
     6    17    18   ar
     7    18    19   ar
     8    19    20   ar
     9    20    21    1
    10    20    22   ar
    11    13    14   ar
    12    14    15   ar
    13    15     9    1
    14     9     8    1
    15     8     7    1
    16     7     1    1
    17     1     2   ar
    18     2     3   ar
    19     3     4   ar
    20     4     5   ar
    21     5    23    1
    22    24    23    1
    23    24    25    1
    24    25    26    2
    25    25    27   am
    26    27    29    1
    27    29    30   ar
    28    30    31   ar
    29    31    32   ar
    30    32    35    1
    31    35    36    1
    32    35    37    1
    33    35    38    1
    34    32    33   ar
    35    33    34   ar
    36    27    28    1
    37    28    39    1
    38    39    40   ar
    39    39    41   ar
    40     5     6   ar
    41    15    11   ar
    42     6     1   ar
    43    22    16   ar
    44    28    24    1
    45    34    29   ar
