@<TRIPOS>MOLECULE
*****
 30 32 0 0 0
SMALL
GASTEIGER

@<TRIPOS>ATOM
      1 C         138.8092  142.9394  163.2843 C.ar    1  UNL1        0.1254
      2 C         139.4289  142.8045  164.6436 C.ar    1  UNL1        0.0233
      3 C         139.1740  141.5760  165.4655 C.ar    1  UNL1        0.0383
      4 C         138.2992  140.4823  164.9282 C.ar    1  UNL1        0.1391
      5 C         137.6794  140.6172  163.5689 C.ar    1  UNL1        0.0383
      6 C         137.9344  141.8458  162.7470 C.ar    1  UNL1        0.0233
      7 O         139.8945  144.7391  163.5732 O.2     1  UNL1       -0.1499
      8 S         139.0641  144.1680  162.4623 S.O2    1  UNL1        0.0751
      9 O         138.2337  143.5970  161.3513 O.2     1  UNL1       -0.1499
     10 N         139.3190  145.3965  161.6403 N.pl3   1  UNL1       -0.1925
     11 H         138.8954  146.2503  161.8867 H       1  UNL1        0.1758
     12 C         140.2195  145.3242  160.4428 C.ar    1  UNL1        0.1977
     13 N         139.9292  145.8933  159.0857 N.ar    1  UNL1       -0.1997
     14 C         141.0987  145.5909  158.1963 C.ar    1  UNL1        0.2082
     15 N         142.1117  144.8348  159.0038 N.ar    1  UNL1       -0.1840
     16 S         141.5684  144.6700  160.3922 S.2     1  UNL1        0.0508
     17 O         138.0442  139.2538  165.7502 O.3     1  UNL1       -0.4706
     18 C         138.7640  137.9765  165.4331 C.3     1  UNL1        0.2320
     19 C         140.0212  138.0072  164.6154 C.ar    1  UNL1        0.0222
     20 C         139.9864  137.6041  163.1710 C.ar    1  UNL1        0.0025
     21 C         141.2435  137.6348  162.3533 C.ar    1  UNL1        0.0379
     22 C         142.5354  138.0685  162.9800 C.ar    1  UNL1        0.1572
     23 C         142.5703  138.4716  164.4244 C.ar    1  UNL1        0.0916
     24 CL        143.8622  138.9053  165.0511 Cl      1  UNL1       -0.0791
     25 C         141.3131  138.4409  165.2421 C.ar    1  UNL1        0.0138
     26 O         143.7926  138.0991  162.1622 O.3     1  UNL1       -0.4036
     27 C         143.9501  139.1114  161.0666 C.3     1  UNL1        0.5753
     28 F         144.1077  140.1237  159.9710 F       1  UNL1       -0.1328
     29 F         143.5244  138.0861  160.0580 F       1  UNL1       -0.1328
     30 F         144.3759  140.1368  162.0752 F       1  UNL1       -0.1328
@<TRIPOS>BOND
     1     7     8    2
     2     8     9    2
     3     8    10    1
     4    10    12    1
     5    12    13   ar
     6    13    14   ar
     7    14    15   ar
     8    15    16   ar
     9     8     1    1
    10     1     2   ar
    11     2     3   ar
    12     3     4   ar
    13     4    17    1
    14    17    18    1
    15    18    19    1
    16    19    20   ar
    17    20    21   ar
    18    21    22   ar
    19    22    26    1
    20    26    27    1
    21    27    28    1
    22    27    29    1
    23    27    30    1
    24    22    23   ar
    25    23    24    1
    26    23    25   ar
    27     4     5   ar
    28     5     6   ar
    29    16    12   ar
    30     6     1   ar
    31    25    19   ar
    32    10    11    1
@<TRIPOS>MOLECULE
*****
 30 32 0 0 0
SMALL
GASTEIGER

@<TRIPOS>ATOM
      1 C         141.4162  137.8951  162.1084 C.ar    1  UNL1        0.1254
      2 C         141.9531  137.6679  163.4904 C.ar    1  UNL1        0.0233
      3 C         141.0089  137.4446  164.6344 C.ar    1  UNL1        0.0383
      4 C         139.5279  137.4484  164.3962 C.ar    1  UNL1        0.1391
      5 C         138.9911  137.6755  163.0141 C.ar    1  UNL1        0.0383
      6 C         139.9353  137.8989  161.8702 C.ar    1  UNL1        0.0233
      7 O         141.1964  138.3744  160.0536 O.2     1  UNL1       -0.1499
      8 S         142.3604  138.1184  160.9643 S.O2    1  UNL1        0.0751
      9 O         143.5244  137.8625  161.8751 O.2     1  UNL1       -0.1499
     10 N         143.3046  138.3418  159.8204 N.pl3   1  UNL1       -0.1925
     11 H         143.6787  137.5722  159.3335 H       1  UNL1        0.1758
     12 C         143.6788  139.7376  159.4183 C.ar    1  UNL1        0.1977
     13 N         144.2682  140.1477  158.1013 N.ar    1  UNL1       -0.1997
     14 C         144.4830  141.6320  158.1317 C.ar    1  UNL1        0.2082
     15 N         144.0263  142.1392  159.4674 N.ar    1  UNL1       -0.1840
     16 S         143.5293  140.9684  160.2626 S.2     1  UNL1        0.0508
     17 O         138.5838  137.2250  165.5403 O.3     1  UNL1       -0.4706
     18 C         138.0235  138.3971  166.2901 C.3     1  UNL1        0.2320
     19 C         138.5986  139.7665  166.0796 C.ar    1  UNL1        0.0222
     20 C         138.1102  140.6189  164.9462 C.ar    1  UNL1        0.0025
     21 C         138.6852  141.9882  164.7357 C.ar    1  UNL1        0.0379
     22 C         139.7486  142.5051  165.6588 C.ar    1  UNL1        0.1572
     23 C         140.2370  141.6527  166.7922 C.ar    1  UNL1        0.0916
     24 CL        141.3004  142.1695  167.7153 Cl      1  UNL1       -0.0791
     25 C         139.6620  140.2834  167.0027 C.ar    1  UNL1        0.0138
     26 O         140.3236  143.8745  165.4483 O.3     1  UNL1       -0.4036
     27 C         139.8491  144.7193  164.3033 C.3     1  UNL1        0.5753
     28 F         139.3746  145.5641  163.1583 F       1  UNL1       -0.1328
     29 F         138.8080  145.3359  165.1897 F       1  UNL1       -0.1328
     30 F         140.8902  144.1027  163.4168 F       1  UNL1       -0.1328
@<TRIPOS>BOND
     1     7     8    2
     2     8     9    2
     3     8    10    1
     4    10    12    1
     5    12    13   ar
     6    13    14   ar
     7    14    15   ar
     8    15    16   ar
     9     8     1    1
    10     1     2   ar
    11     2     3   ar
    12     3     4   ar
    13     4    17    1
    14    17    18    1
    15    18    19    1
    16    19    20   ar
    17    20    21   ar
    18    21    22   ar
    19    22    26    1
    20    26    27    1
    21    27    28    1
    22    27    29    1
    23    27    30    1
    24    22    23   ar
    25    23    24    1
    26    23    25   ar
    27     4     5   ar
    28     5     6   ar
    29    16    12   ar
    30     6     1   ar
    31    25    19   ar
    32    10    11    1
@<TRIPOS>MOLECULE
*****
 30 32 0 0 0
SMALL
GASTEIGER

@<TRIPOS>ATOM
      1 C         138.8120  143.1061  163.5050 C.ar    1  UNL1        0.1254
      2 C         139.7340  142.8023  164.6484 C.ar    1  UNL1        0.0233
      3 C         139.4791  141.6090  165.5208 C.ar    1  UNL1        0.0383
      4 C         138.3021  140.7195  165.2496 C.ar    1  UNL1        0.1391
      5 C         137.3801  141.0233  164.1062 C.ar    1  UNL1        0.0383
      6 C         137.6350  142.2166  163.2339 C.ar    1  UNL1        0.0233
      7 O         139.9084  144.9101  163.7138 O.2     1  UNL1       -0.1499
      8 S         139.0669  144.2995  162.6326 S.O2    1  UNL1        0.0751
      9 O         138.2254  143.6888  161.5515 O.2     1  UNL1       -0.1499
     10 N         139.3218  145.4927  161.7602 N.pl3   1  UNL1       -0.1925
     11 H         138.9069  146.3588  161.9772 H       1  UNL1        0.1758
     12 C         140.2088  145.3666  160.5572 C.ar    1  UNL1        0.1977
     13 N         139.9048  145.8774  159.1801 N.ar    1  UNL1       -0.1997
     14 C         141.0637  145.5340  158.2918 C.ar    1  UNL1        0.2082
     15 N         142.0840  144.8108  159.1200 N.ar    1  UNL1       -0.1840
     16 S         141.5557  144.7074  160.5201 S.2     1  UNL1        0.0508
     17 O         138.0472  139.5262  166.1220 O.3     1  UNL1       -0.4706
     18 C         138.4554  138.1587  165.6603 C.3     1  UNL1        0.2320
     19 C         139.4072  138.0083  164.5106 C.ar    1  UNL1        0.0222
     20 C         140.8692  137.7962  164.7701 C.ar    1  UNL1        0.0025
     21 C         141.8208  137.6458  163.6205 C.ar    1  UNL1        0.0379
     22 C         141.3104  137.7075  162.2113 C.ar    1  UNL1        0.1572
     23 C         139.8484  137.9196  161.9518 C.ar    1  UNL1        0.0916
     24 CL        139.3380  137.9814  160.5427 Cl      1  UNL1       -0.0791
     25 C         138.8968  138.0700  163.1015 C.ar    1  UNL1        0.0138
     26 O         142.2622  137.5572  161.0617 O.3     1  UNL1       -0.4036
     27 C         143.4486  138.4677  160.9462 C.3     1  UNL1        0.5753
     28 F         144.6350  139.3781  160.8306 F       1  UNL1       -0.1328
     29 F         142.5438  139.5962  160.5492 F       1  UNL1       -0.1328
     30 F         144.3534  137.3391  161.3431 F       1  UNL1       -0.1328
@<TRIPOS>BOND
     1     7     8    2
     2     8     9    2
     3     8    10    1
     4    10    12    1
     5    12    13   ar
     6    13    14   ar
     7    14    15   ar
     8    15    16   ar
     9     8     1    1
    10     1     2   ar
    11     2     3   ar
    12     3     4   ar
    13     4    17    1
    14    17    18    1
    15    18    19    1
    16    19    20   ar
    17    20    21   ar
    18    21    22   ar
    19    22    26    1
    20    26    27    1
    21    27    28    1
    22    27    29    1
    23    27    30    1
    24    22    23   ar
    25    23    24    1
    26    23    25   ar
    27     4     5   ar
    28     5     6   ar
    29    16    12   ar
    30     6     1   ar
    31    25    19   ar
    32    10    11    1
@<TRIPOS>MOLECULE
*****
 30 32 0 0 0
SMALL
GASTEIGER

@<TRIPOS>ATOM
      1 C         139.2754  139.9926  166.0234 C.ar    1  UNL1        0.1254
      2 C         139.1075  138.7909  165.1416 C.ar    1  UNL1        0.0233
      3 C         138.5333  138.9455  163.7645 C.ar    1  UNL1        0.0383
      4 C         138.1270  140.3019  163.2693 C.ar    1  UNL1        0.1391
      5 C         138.2948  141.5035  164.1512 C.ar    1  UNL1        0.0383
      6 C         138.8690  141.3489  165.5282 C.ar    1  UNL1        0.0233
      7 O         138.5606  139.2315  167.8700 O.2     1  UNL1       -0.1499
      8 S         139.8496  139.8380  167.4006 S.O2    1  UNL1        0.0751
      9 O         141.1387  140.4445  166.9311 O.2     1  UNL1       -0.1499
     10 N         140.4239  139.6834  168.7776 N.pl3   1  UNL1       -0.1925
     11 H         140.8440  138.8336  169.0432 H       1  UNL1        0.1758
     12 C         140.3580  140.8236  169.7500 C.ar    1  UNL1        0.1977
     13 N         139.7633  142.1750  169.4853 N.ar    1  UNL1       -0.1997
     14 C         139.9129  142.9992  170.7295 C.ar    1  UNL1        0.2082
     15 N         140.6002  142.1573  171.7634 N.ar    1  UNL1       -0.1840
     16 S         140.8752  140.8127  171.1580 S.2     1  UNL1        0.0508
     17 O         137.5527  140.4564  161.8922 O.3     1  UNL1       -0.4706
     18 C         138.4359  140.8737  160.7538 C.3     1  UNL1        0.2320
     19 C         139.5709  141.8245  160.9946 C.ar    1  UNL1        0.0222
     20 C         140.9443  141.2951  161.2831 C.ar    1  UNL1        0.0025
     21 C         142.0792  142.2459  161.5239 C.ar    1  UNL1        0.0379
     22 C         141.8407  143.7260  161.4761 C.ar    1  UNL1        0.1572
     23 C         140.4672  144.2554  161.1876 C.ar    1  UNL1        0.0916
     24 CL        140.2286  145.7355  161.1398 Cl      1  UNL1       -0.0791
     25 C         139.3323  143.3047  160.9468 C.ar    1  UNL1        0.0138
     26 O         142.9756  144.6768  161.7169 O.3     1  UNL1       -0.4036
     27 C         143.5879  144.7835  163.0821 C.3     1  UNL1        0.5753
     28 F         144.2002  144.8902  164.4472 F       1  UNL1       -0.1328
     29 F         144.7566  143.9634  162.6220 F       1  UNL1       -0.1328
     30 F         142.4193  145.6036  163.5421 F       1  UNL1       -0.1328
@<TRIPOS>BOND
     1     7     8    2
     2     8     9    2
     3     8    10    1
     4    10    12    1
     5    12    13   ar
     6    13    14   ar
     7    14    15   ar
     8    15    16   ar
     9     8     1    1
    10     1     2   ar
    11     2     3   ar
    12     3     4   ar
    13     4    17    1
    14    17    18    1
    15    18    19    1
    16    19    20   ar
    17    20    21   ar
    18    21    22   ar
    19    22    26    1
    20    26    27    1
    21    27    28    1
    22    27    29    1
    23    27    30    1
    24    22    23   ar
    25    23    24    1
    26    23    25   ar
    27     4     5   ar
    28     5     6   ar
    29    16    12   ar
    30     6     1   ar
    31    25    19   ar
    32    10    11    1
@<TRIPOS>MOLECULE
*****
 30 32 0 0 0
SMALL
GASTEIGER

@<TRIPOS>ATOM
      1 C         142.0880  139.8677  166.1570 C.ar    1  UNL1        0.1254
      2 C         143.0050  139.7683  164.9741 C.ar    1  UNL1        0.0233
      3 C         142.6026  138.9554  163.7795 C.ar    1  UNL1        0.0383
      4 C         141.2831  138.2420  163.7676 C.ar    1  UNL1        0.1391
      5 C         140.3661  138.3415  164.9505 C.ar    1  UNL1        0.0383
      6 C         140.7686  139.1543  166.1452 C.ar    1  UNL1        0.0233
      7 O         142.8040  139.4208  168.1033 O.2     1  UNL1       -0.1499
      8 S         142.4904  140.6806  167.3518 S.O2    1  UNL1        0.0751
      9 O         142.1769  141.9403  166.6003 O.2     1  UNL1       -0.1499
     10 N         142.8928  141.4934  168.5464 N.pl3   1  UNL1       -0.1925
     11 H         143.8298  141.7744  168.6577 H       1  UNL1        0.1758
     12 C         141.8677  141.8781  169.5716 C.ar    1  UNL1        0.1977
     13 N         140.6802  142.7651  169.3414 N.ar    1  UNL1       -0.1997
     14 C         139.9286  142.8786  170.6345 C.ar    1  UNL1        0.2082
     15 N         140.6516  142.0617  171.6641 N.ar    1  UNL1       -0.1840
     16 S         141.8501  141.4434  171.0072 S.2     1  UNL1        0.0508
     17 O         140.8807  137.4292  162.5729 O.3     1  UNL1       -0.4706
     18 C         140.0008  138.0314  161.5179 C.3     1  UNL1        0.2320
     19 C         139.4345  139.4072  161.7091 C.ar    1  UNL1        0.0222
     20 C         138.0946  139.5830  162.3601 C.ar    1  UNL1        0.0025
     21 C         137.5284  140.9587  162.5513 C.ar    1  UNL1        0.0379
     22 C         138.3021  142.1588  162.0916 C.ar    1  UNL1        0.1572
     23 C         139.6420  141.9831  161.4407 C.ar    1  UNL1        0.0916
     24 CL        140.4157  143.1831  160.9810 Cl      1  UNL1       -0.0791
     25 C         140.2082  140.6073  161.2495 C.ar    1  UNL1        0.0138
     26 O         137.7359  143.5346  162.2829 O.3     1  UNL1       -0.4036
     27 C         138.1554  144.3611  163.4623 C.3     1  UNL1        0.5753
     28 F         138.5750  145.1875  164.6416 F       1  UNL1       -0.1328
     29 F         137.5383  143.3544  164.3873 F       1  UNL1       -0.1328
     30 F         138.7726  145.3678  162.5372 F       1  UNL1       -0.1328
@<TRIPOS>BOND
     1     7     8    2
     2     8     9    2
     3     8    10    1
     4    10    12    1
     5    12    13   ar
     6    13    14   ar
     7    14    15   ar
     8    15    16   ar
     9     8     1    1
    10     1     2   ar
    11     2     3   ar
    12     3     4   ar
    13     4    17    1
    14    17    18    1
    15    18    19    1
    16    19    20   ar
    17    20    21   ar
    18    21    22   ar
    19    22    26    1
    20    26    27    1
    21    27    28    1
    22    27    29    1
    23    27    30    1
    24    22    23   ar
    25    23    24    1
    26    23    25   ar
    27     4     5   ar
    28     5     6   ar
    29    16    12   ar
    30     6     1   ar
    31    25    19   ar
    32    10    11    1
@<TRIPOS>MOLECULE
*****
 30 32 0 0 0
SMALL
GASTEIGER

@<TRIPOS>ATOM
      1 C         141.0794  144.1349  164.1076 C.ar    1  UNL1        0.1254
      2 C         142.3757  143.4496  164.4239 C.ar    1  UNL1        0.0233
      3 C         142.5110  142.6450  165.6826 C.ar    1  UNL1        0.0383
      4 C         141.3502  142.5258  166.6250 C.ar    1  UNL1        0.1391
      5 C         140.0539  143.2111  166.3087 C.ar    1  UNL1        0.0383
      6 C         139.9185  144.0156  165.0500 C.ar    1  UNL1        0.0233
      7 O         139.4971  145.1831  163.1602 O.2     1  UNL1       -0.1499
      8 S         140.9440  144.9395  162.8488 S.O2    1  UNL1        0.0751
      9 O         142.3909  144.6958  162.5375 O.2     1  UNL1       -0.1499
     10 N         140.8086  145.7440  161.5901 N.pl3   1  UNL1       -0.1925
     11 H         140.6406  146.7127  161.6408 H       1  UNL1        0.1758
     12 C         140.9292  145.0726  160.2542 C.ar    1  UNL1        0.1977
     13 N         141.8905  145.4441  159.1643 N.ar    1  UNL1       -0.1997
     14 C         141.6652  144.5129  158.0102 C.ar    1  UNL1        0.2082
     15 N         140.5646  143.5659  158.3867 N.ar    1  UNL1       -0.1840
     16 S         140.1098  143.9118  159.7736 S.2     1  UNL1        0.0508
     17 O         141.4856  141.7212  167.8837 O.3     1  UNL1       -0.4706
     18 C         141.1930  140.2501  167.8687 C.3     1  UNL1        0.2320
     19 C         140.5295  139.6296  166.6750 C.ar    1  UNL1        0.0222
     20 C         139.0391  139.7030  166.5228 C.ar    1  UNL1        0.0025
     21 C         138.3757  139.0824  165.3292 C.ar    1  UNL1        0.0379
     22 C         139.2027  138.3884  164.2878 C.ar    1  UNL1        0.1572
     23 C         140.6931  138.3150  164.4400 C.ar    1  UNL1        0.0916
     24 CL        141.5201  137.6210  163.3987 Cl      1  UNL1       -0.0791
     25 C         141.3565  138.9356  165.6336 C.ar    1  UNL1        0.0138
     26 O         138.5392  137.7679  163.0942 O.3     1  UNL1       -0.4036
     27 C         138.4249  138.5404  161.8135 C.3     1  UNL1        0.5753
     28 F         138.3106  139.3129  160.5329 F       1  UNL1       -0.1328
     29 F         137.4933  139.5084  162.4806 F       1  UNL1       -0.1328
     30 F         139.3564  137.5723  161.1464 F       1  UNL1       -0.1328
@<TRIPOS>BOND
     1     7     8    2
     2     8     9    2
     3     8    10    1
     4    10    12    1
     5    12    13   ar
     6    13    14   ar
     7    14    15   ar
     8    15    16   ar
     9     8     1    1
    10     1     2   ar
    11     2     3   ar
    12     3     4   ar
    13     4    17    1
    14    17    18    1
    15    18    19    1
    16    19    20   ar
    17    20    21   ar
    18    21    22   ar
    19    22    26    1
    20    26    27    1
    21    27    28    1
    22    27    29    1
    23    27    30    1
    24    22    23   ar
    25    23    24    1
    26    23    25   ar
    27     4     5   ar
    28     5     6   ar
    29    16    12   ar
    30     6     1   ar
    31    25    19   ar
    32    10    11    1
@<TRIPOS>MOLECULE
*****
 30 32 0 0 0
SMALL
GASTEIGER

@<TRIPOS>ATOM
      1 C         142.3592  143.8380  163.7799 C.ar    1  UNL1        0.1254
      2 C         141.1944  143.5962  164.6935 C.ar    1  UNL1        0.0233
      3 C         141.4003  142.8890  166.0002 C.ar    1  UNL1        0.0383
      4 C         142.7710  142.4237  166.3933 C.ar    1  UNL1        0.1391
      5 C         143.9358  142.6655  165.4798 C.ar    1  UNL1        0.0383
      6 C         143.7300  143.3726  164.1731 C.ar    1  UNL1        0.0233
      7 O         140.6711  144.5382  162.7028 O.2     1  UNL1       -0.1499
      8 S         142.1534  144.5451  162.4732 S.O2    1  UNL1        0.0751
      9 O         143.6356  144.5521  162.2435 O.2     1  UNL1       -0.1499
     10 N         141.9476  145.2523  161.1664 N.pl3   1  UNL1       -0.1925
     11 H         142.2274  146.1907  161.0652 H       1  UNL1        0.1758
     12 C         141.3155  144.5296  160.0140 C.ar    1  UNL1        0.1977
     13 N         140.0216  144.8932  159.3480 N.ar    1  UNL1       -0.1997
     14 C         139.7728  143.9048  158.2475 C.ar    1  UNL1        0.2082
     15 N         140.9129  142.9302  158.2334 N.ar    1  UNL1       -0.1840
     16 S         141.8664  143.3164  159.3251 S.2     1  UNL1        0.0508
     17 O         142.9769  141.7165  167.7001 O.3     1  UNL1       -0.4706
     18 C         142.6775  140.2512  167.8153 C.3     1  UNL1        0.2320
     19 C         141.7741  139.5896  166.8172 C.ar    1  UNL1        0.0222
     20 C         142.3586  138.7844  165.6947 C.ar    1  UNL1        0.0025
     21 C         141.4552  138.1228  164.6967 C.ar    1  UNL1        0.0379
     22 C         139.9673  138.2664  164.8211 C.ar    1  UNL1        0.1572
     23 C         139.3827  139.0716  165.9436 C.ar    1  UNL1        0.0916
     24 CL        137.8948  139.2152  166.0680 Cl      1  UNL1       -0.0791
     25 C         140.2862  139.7332  166.9416 C.ar    1  UNL1        0.0138
     26 O         139.0638  137.6048  163.8230 O.3     1  UNL1       -0.4036
     27 C         138.9294  138.1726  162.4412 C.3     1  UNL1        0.5753
     28 F         138.7949  138.7404  161.0593 F       1  UNL1       -0.1328
     29 F         140.1271  137.3844  162.0007 F       1  UNL1       -0.1328
     30 F         137.7316  138.9608  162.8816 F       1  UNL1       -0.1328
@<TRIPOS>BOND
     1     7     8    2
     2     8     9    2
     3     8    10    1
     4    10    12    1
     5    12    13   ar
     6    13    14   ar
     7    14    15   ar
     8    15    16   ar
     9     8     1    1
    10     1     2   ar
    11     2     3   ar
    12     3     4   ar
    13     4    17    1
    14    17    18    1
    15    18    19    1
    16    19    20   ar
    17    20    21   ar
    18    21    22   ar
    19    22    26    1
    20    26    27    1
    21    27    28    1
    22    27    29    1
    23    27    30    1
    24    22    23   ar
    25    23    24    1
    26    23    25   ar
    27     4     5   ar
    28     5     6   ar
    29    16    12   ar
    30     6     1   ar
    31    25    19   ar
    32    10    11    1
@<TRIPOS>MOLECULE
*****
 30 32 0 0 0
SMALL
GASTEIGER

@<TRIPOS>ATOM
      1 C         142.8209  140.5157  166.5085 C.ar    1  UNL1        0.1254
      2 C         143.2574  141.9399  166.3324 C.ar    1  UNL1        0.0233
      3 C         144.0836  142.3295  165.1427 C.ar    1  UNL1        0.0383
      4 C         144.4733  141.2948  164.1290 C.ar    1  UNL1        0.1391
      5 C         144.0368  139.8706  164.3050 C.ar    1  UNL1        0.0383
      6 C         143.2106  139.4811  165.4948 C.ar    1  UNL1        0.0233
      7 O         140.8747  140.9930  167.2045 O.2     1  UNL1       -0.1499
      8 S         141.9947  140.1261  167.6983 S.O2    1  UNL1        0.0751
      9 O         143.1147  139.2591  168.1921 O.2     1  UNL1       -0.1499
     10 N         141.1685  139.7364  168.8881 N.pl3   1  UNL1       -0.1925
     11 H         140.8917  138.7995  169.0096 H       1  UNL1        0.1758
     12 C         140.7641  140.7743  169.8927 C.ar    1  UNL1        0.1977
     13 N         139.5292  141.6238  169.8345 N.ar    1  UNL1       -0.1997
     14 C         139.5254  142.5194  171.0377 C.ar    1  UNL1        0.2082
     15 N         140.7580  142.2235  171.8397 N.ar    1  UNL1       -0.1840
     16 S         141.5235  141.1450  171.1320 S.2     1  UNL1        0.0508
     17 O         145.2995  141.6845  162.9391 O.3     1  UNL1       -0.4706
     18 C         144.7061  142.5448  161.8632 C.3     1  UNL1        0.2320
     19 C         143.3511  143.1588  162.0559 C.ar    1  UNL1        0.0222
     20 C         143.2263  144.5258  162.6606 C.ar    1  UNL1        0.0025
     21 C         141.8714  145.1398  162.8533 C.ar    1  UNL1        0.0379
     22 C         140.6413  144.3868  162.4413 C.ar    1  UNL1        0.1572
     23 C         140.7661  143.0198  161.8366 C.ar    1  UNL1        0.0916
     24 CL        139.5360  142.2668  161.4246 Cl      1  UNL1       -0.0791
     25 C         142.1210  142.4058  161.6439 C.ar    1  UNL1        0.0138
     26 O         139.2863  145.0008  162.6340 O.3     1  UNL1       -0.4036
     27 C         138.4444  144.6059  163.8109 C.3     1  UNL1        0.5753
     28 F         137.6025  144.2109  164.9878 F       1  UNL1       -0.1328
     29 F         137.3669  144.1321  162.8812 F       1  UNL1       -0.1328
     30 F         139.5219  145.0796  164.7407 F       1  UNL1       -0.1328
@<TRIPOS>BOND
     1     7     8    2
     2     8     9    2
     3     8    10    1
     4    10    12    1
     5    12    13   ar
     6    13    14   ar
     7    14    15   ar
     8    15    16   ar
     9     8     1    1
    10     1     2   ar
    11     2     3   ar
    12     3     4   ar
    13     4    17    1
    14    17    18    1
    15    18    19    1
    16    19    20   ar
    17    20    21   ar
    18    21    22   ar
    19    22    26    1
    20    26    27    1
    21    27    28    1
    22    27    29    1
    23    27    30    1
    24    22    23   ar
    25    23    24    1
    26    23    25   ar
    27     4     5   ar
    28     5     6   ar
    29    16    12   ar
    30     6     1   ar
    31    25    19   ar
    32    10    11    1
@<TRIPOS>MOLECULE
*****
 30 32 0 0 0
SMALL
GASTEIGER

@<TRIPOS>ATOM
      1 C         138.3732  141.5921  161.9447 C.ar    1  UNL1        0.1254
      2 C         138.7339  140.1387  162.0319 C.ar    1  UNL1        0.0233
      3 C         138.5933  139.4080  163.3343 C.ar    1  UNL1        0.0383
      4 C         138.0920  140.1305  164.5494 C.ar    1  UNL1        0.1391
      5 C         137.7313  141.5839  164.4622 C.ar    1  UNL1        0.0383
      6 C         137.8719  142.3146  163.1599 C.ar    1  UNL1        0.0233
      7 O         138.5835  141.0131  159.9148 O.2     1  UNL1       -0.1499
      8 S         138.5139  142.3229  160.6423 S.O2    1  UNL1        0.0751
      9 O         138.4442  143.6328  161.3699 O.2     1  UNL1       -0.1499
     10 N         138.6545  143.0538  159.3401 N.pl3   1  UNL1       -0.1925
     11 H         137.9219  143.0336  158.6826 H       1  UNL1        0.1758
     12 C         139.9112  143.8155  159.0394 C.ar    1  UNL1        0.1977
     13 N         139.9881  145.2277  158.5396 N.ar    1  UNL1       -0.1997
     14 C         141.4361  145.5838  158.3770 C.ar    1  UNL1        0.2082
     15 N         142.2542  144.3916  158.7762 N.ar    1  UNL1       -0.1840
     16 S         141.3118  143.2987  159.1856 S.2     1  UNL1        0.0508
     17 O         137.9514  139.3996  165.8518 O.3     1  UNL1       -0.4706
     18 C         139.0283  139.5044  166.8907 C.3     1  UNL1        0.2320
     19 C         140.3013  140.2346  166.5804 C.ar    1  UNL1        0.0222
     20 C         140.4386  141.6860  166.9334 C.ar    1  UNL1        0.0025
     21 C         141.7116  142.4161  166.6230 C.ar    1  UNL1        0.0379
     22 C         142.8473  141.6949  165.9597 C.ar    1  UNL1        0.1572
     23 C         142.7100  140.2436  165.6067 C.ar    1  UNL1        0.0916
     24 CL        143.8457  139.5223  164.9434 Cl      1  UNL1       -0.0791
     25 C         141.4370  139.5134  165.9170 C.ar    1  UNL1        0.0138
     26 O         144.1203  142.4251  165.6494 O.3     1  UNL1       -0.4036
     27 C         144.0866  143.6680  164.8102 C.3     1  UNL1        0.5753
     28 F         144.0529  144.9108  163.9711 F       1  UNL1       -0.1328
     29 F         143.2660  142.9501  163.7801 F       1  UNL1       -0.1328
     30 F         144.9073  144.3858  165.8404 F       1  UNL1       -0.1328
@<TRIPOS>BOND
     1     7     8    2
     2     8     9    2
     3     8    10    1
     4    10    12    1
     5    12    13   ar
     6    13    14   ar
     7    14    15   ar
     8    15    16   ar
     9     8     1    1
    10     1     2   ar
    11     2     3   ar
    12     3     4   ar
    13     4    17    1
    14    17    18    1
    15    18    19    1
    16    19    20   ar
    17    20    21   ar
    18    21    22   ar
    19    22    26    1
    20    26    27    1
    21    27    28    1
    22    27    29    1
    23    27    30    1
    24    22    23   ar
    25    23    24    1
    26    23    25   ar
    27     4     5   ar
    28     5     6   ar
    29    16    12   ar
    30     6     1   ar
    31    25    19   ar
    32    10    11    1
