@<TRIPOS>MOLECULE
*****
 40 44 0 0 0
SMALL
GASTEIGER

@<TRIPOS>ATOM
      1 C         140.4244  139.2992  157.8761 C.3     1  UNL1        0.1031
      2 C         139.9673  143.7189  157.1640 C.ar    1  UNL1        0.0536
      3 C         138.8443  142.9384  157.7802 C.ar    1  UNL1        0.0042
      4 C         138.9967  141.4652  158.0176 C.ar    1  UNL1       -0.0025
      5 C         140.2720  140.7724  157.6387 C.ar    1  UNL1       -0.0036
      6 C         141.3950  141.5529  157.0225 C.ar    1  UNL1       -0.0025
      7 C         141.2426  143.0261  156.7851 C.ar    1  UNL1        0.0042
      8 N         139.1201  145.6850  155.6920 N.am    1  UNL1       -0.2743
      9 C         138.9677  147.1582  155.4546 C.3     1  UNL1        0.1152
     10 C         139.8149  145.1921  156.9266 C.2     1  UNL1        0.2491
     11 O         140.3573  146.1725  157.9239 O.2     1  UNL1       -0.2699
     12 C         137.1359  144.2949  154.7536 C.3     1  UNL1        0.0233
     13 C         138.5776  144.7046  154.6947 C.3     1  UNL1        0.0938
     14 C         140.4676  138.3527  156.7133 C.ar    1  UNL1       -0.0024
     15 C         139.8832  138.7595  155.3929 C.ar    1  UNL1       -0.0026
     16 C         139.9264  137.8130  154.2301 C.ar    1  UNL1        0.0010
     17 C         140.5539  136.4596  154.3875 C.ar    1  UNL1        0.0147
     18 C         141.1382  136.0528  155.7077 C.ar    1  UNL1        0.0500
     19 C         141.0951  136.9994  156.8707 C.ar    1  UNL1        0.0120
     20 N         141.7657  134.6995  155.8651 N.am    1  UNL1       -0.2839
     21 C         143.2594  134.5625  155.8801 C.2     1  UNL1        0.2256
     22 O         144.1256  135.7789  155.7377 O.2     1  UNL1       -0.2748
     23 H         141.1972  133.9012  155.9586 H       1  UNL1        0.1549
     24 C         143.8869  133.2092  156.0375 C.3     1  UNL1        0.0768
     25 C         143.8343  131.9201  155.2722 C.3     1  UNL1        0.0091
     26 C         144.7743  131.2953  156.2601 C.3     1  UNL1        0.0010
     27 C         144.8268  132.5843  157.0254 C.3     1  UNL1        0.0091
     28 N         140.5336  138.7724  159.2763 N.3     1  UNL1       -0.2644
     29 C         139.2926  138.4835  160.0678 C.3     1  UNL1        0.0901
     30 C         139.4018  137.9567  161.4681 C.3     1  UNL1        0.0899
     31 N         140.7520  137.7190  162.0767 N.3     1  UNL1       -0.2665
     32 C         141.9929  138.0079  161.2852 C.3     1  UNL1        0.0899
     33 C         141.8838  138.5346  159.8850 C.3     1  UNL1        0.0901
     34 C         140.8612  137.1922  163.4770 C.3     1  UNL1        0.1008
     35 C         140.2479  137.9535  164.6147 C.ar    1  UNL1        0.0130
     36 C         138.8565  137.6283  165.0711 C.ar    1  UNL1        0.0002
     37 C         138.2432  138.3896  166.2088 C.ar    1  UNL1        0.0204
     38 C         139.0213  139.4761  166.8900 C.ar    1  UNL1        0.0989
     39 N         140.4127  139.8013  166.4335 N.ar    1  UNL1       -0.2426
     40 C         141.0259  139.0400  165.2959 C.ar    1  UNL1        0.0959
@<TRIPOS>BOND
     1    12    13    1
     2    13     8    1
     3     8     9    1
     4     8    10   am
     5    10    11    2
     6    10     2    1
     7     2     3   ar
     8     3     4   ar
     9     4     5   ar
    10     5     1    1
    11     1    14    1
    12    14    15   ar
    13    15    16   ar
    14    16    17   ar
    15    17    18   ar
    16    18    20    1
    17    20    21   am
    18    21    22    2
    19    21    24    1
    20    24    25    1
    21    25    26    1
    22    26    27    1
    23    18    19   ar
    24     1    28    1
    25    28    29    1
    26    29    30    1
    27    30    31    1
    28    31    34    1
    29    34    35    1
    30    35    36   ar
    31    36    37   ar
    32    37    38   ar
    33    38    39   ar
    34    39    40   ar
    35    31    32    1
    36    32    33    1
    37     5     6   ar
    38     6     7   ar
    39     7     2   ar
    40    19    14   ar
    41    33    28    1
    42    27    24    1
    43    40    35   ar
    44    20    23    1
@<TRIPOS>MOLECULE
*****
 40 44 0 0 0
SMALL
GASTEIGER

@<TRIPOS>ATOM
      1 C         139.4818  145.6266  155.9462 C.3     1  UNL1        0.1031
      2 C         139.6262  149.8013  154.2727 C.ar    1  UNL1        0.0536
      3 C         140.3429  148.6865  153.5702 C.ar    1  UNL1        0.0042
      4 C         140.2948  147.2949  154.1281 C.ar    1  UNL1       -0.0025
      5 C         139.5300  147.0181  155.3884 C.ar    1  UNL1       -0.0036
      6 C         138.8133  148.1330  156.0908 C.ar    1  UNL1       -0.0025
      7 C         138.8614  149.5245  155.5330 C.ar    1  UNL1        0.0042
      8 N         140.9041  152.0321  153.8977 N.am    1  UNL1       -0.2743
      9 C         140.9523  153.4236  153.3398 C.3     1  UNL1        0.1152
     10 C         139.6744  151.1929  153.7148 C.2     1  UNL1        0.2491
     11 O         138.4928  151.7453  152.9742 O.2     1  UNL1       -0.2699
     12 C         143.4758  151.8658  154.2277 C.3     1  UNL1        0.0233
     13 C         142.0858  151.4797  154.6384 C.3     1  UNL1        0.0938
     14 C         140.4177  145.2276  157.0484 C.ar    1  UNL1       -0.0024
     15 C         141.7678  144.6631  156.7185 C.ar    1  UNL1       -0.0026
     16 C         142.7036  144.2641  157.8207 C.ar    1  UNL1        0.0010
     17 C         142.2896  144.4296  159.2529 C.ar    1  UNL1        0.0147
     18 C         140.9396  144.9941  159.5828 C.ar    1  UNL1        0.0500
     19 C         140.0036  145.3931  158.4806 C.ar    1  UNL1        0.0120
     20 N         140.5255  145.1596  161.0150 N.am    1  UNL1       -0.2839
     21 C         139.4647  144.2727  161.5963 C.2     1  UNL1        0.2256
     22 O         138.8179  143.2202  160.7454 O.2     1  UNL1       -0.2748
     23 H         140.9500  145.8504  161.5735 H       1  UNL1        0.1549
     24 C         139.0506  144.4382  163.0285 C.3     1  UNL1        0.0768
     25 C         139.7375  144.8790  164.2871 C.3     1  UNL1        0.0091
     26 C         138.4650  144.6722  165.0539 C.3     1  UNL1        0.0010
     27 C         137.7782  144.2314  163.7954 C.3     1  UNL1        0.0091
     28 N         138.4978  144.6340  155.4019 N.3     1  UNL1       -0.2644
     29 C         137.4719  145.0684  154.3975 C.3     1  UNL1        0.0901
     30 C         136.4878  144.0757  153.8531 C.3     1  UNL1        0.0899
     31 N         136.5297  142.6486  154.3131 N.3     1  UNL1       -0.2665
     32 C         137.5557  142.2142  155.3175 C.3     1  UNL1        0.0899
     33 C         138.5397  143.2068  155.8618 C.3     1  UNL1        0.0901
     34 C         135.5457  141.6559  153.7688 C.3     1  UNL1        0.1008
     35 C         134.6319  140.9172  154.7012 C.ar    1  UNL1        0.0130
     36 C         133.3210  141.5246  155.1044 C.ar    1  UNL1        0.0002
     37 C         132.4073  140.7859  156.0367 C.ar    1  UNL1        0.0204
     38 C         132.8045  139.4396  156.5659 C.ar    1  UNL1        0.0989
     39 N         134.1153  138.8322  156.1627 N.ar    1  UNL1       -0.2426
     40 C         135.0291  139.5710  155.2303 C.ar    1  UNL1        0.0959
@<TRIPOS>BOND
     1    12    13    1
     2    13     8    1
     3     8     9    1
     4     8    10   am
     5    10    11    2
     6    10     2    1
     7     2     3   ar
     8     3     4   ar
     9     4     5   ar
    10     5     1    1
    11     1    14    1
    12    14    15   ar
    13    15    16   ar
    14    16    17   ar
    15    17    18   ar
    16    18    20    1
    17    20    21   am
    18    21    22    2
    19    21    24    1
    20    24    25    1
    21    25    26    1
    22    26    27    1
    23    18    19   ar
    24     1    28    1
    25    28    29    1
    26    29    30    1
    27    30    31    1
    28    31    34    1
    29    34    35    1
    30    35    36   ar
    31    36    37   ar
    32    37    38   ar
    33    38    39   ar
    34    39    40   ar
    35    31    32    1
    36    32    33    1
    37     5     6   ar
    38     6     7   ar
    39     7     2   ar
    40    19    14   ar
    41    33    28    1
    42    27    24    1
    43    40    35   ar
    44    20    23    1
@<TRIPOS>MOLECULE
*****
 40 44 0 0 0
SMALL
GASTEIGER

@<TRIPOS>ATOM
      1 C         139.8704  140.8334  157.2944 C.3     1  UNL1        0.1031
      2 C         140.2273  143.0980  161.1666 C.ar    1  UNL1        0.0536
      3 C         139.9379  143.8333  159.8917 C.ar    1  UNL1        0.0042
      4 C         139.8189  143.0784  158.6009 C.ar    1  UNL1       -0.0025
      5 C         139.9894  141.5883  158.5851 C.ar    1  UNL1       -0.0036
      6 C         140.2788  140.8530  159.8601 C.ar    1  UNL1       -0.0025
      7 C         140.3978  141.6079  161.1508 C.ar    1  UNL1        0.0042
      8 N         139.1384  144.0514  163.3242 N.am    1  UNL1       -0.2743
      9 C         139.2573  144.8063  164.6150 C.3     1  UNL1        0.1152
     10 C         140.3463  143.8529  162.4574 C.2     1  UNL1        0.2491
     11 O         141.6732  144.4093  162.8812 O.2     1  UNL1       -0.2699
     12 C         137.3862  142.1335  163.3646 C.3     1  UNL1        0.0233
     13 C         137.8114  143.4950  162.9004 C.3     1  UNL1        0.0938
     14 C         138.7908  141.1876  156.3152 C.ar    1  UNL1       -0.0024
     15 C         139.1526  141.6651  154.9400 C.ar    1  UNL1       -0.0026
     16 C         138.0730  142.0193  153.9608 C.ar    1  UNL1        0.0010
     17 C         136.6315  141.8959  154.3567 C.ar    1  UNL1        0.0147
     18 C         136.2695  141.4184  155.7318 C.ar    1  UNL1        0.0500
     19 C         137.3492  141.0642  156.7111 C.ar    1  UNL1        0.0120
     20 N         134.8280  141.2950  156.1276 N.am    1  UNL1       -0.2839
     21 C         134.1292  139.9728  156.0128 C.2     1  UNL1        0.2256
     22 O         134.8720  138.7738  155.5020 O.2     1  UNL1       -0.2748
     23 H         134.3405  142.0820  156.4628 H       1  UNL1        0.1549
     24 C         132.6876  139.8494  156.4086 C.3     1  UNL1        0.0768
     25 C         131.8941  138.8826  157.2367 C.3     1  UNL1        0.0091
     26 C         130.6490  139.6750  156.9685 C.3     1  UNL1        0.0010
     27 C         131.4425  140.6417  156.1405 C.3     1  UNL1        0.0091
     28 N         140.8310  139.7243  156.9829 N.3     1  UNL1       -0.2644
     29 C         142.2838  140.0290  156.7670 C.3     1  UNL1        0.0901
     30 C         143.2445  138.9198  156.4554 C.3     1  UNL1        0.0899
     31 N         142.7524  137.5061  156.3598 N.3     1  UNL1       -0.2665
     32 C         141.2996  137.2015  156.5758 C.3     1  UNL1        0.0899
     33 C         140.3389  138.3105  156.8873 C.3     1  UNL1        0.0901
     34 C         143.7130  136.3970  156.0483 C.3     1  UNL1        0.1008
     35 C         143.2181  134.9854  155.9365 C.ar    1  UNL1        0.0130
     36 C         142.7413  134.4603  154.6147 C.ar    1  UNL1        0.0002
     37 C         142.2464  133.0488  154.5028 C.ar    1  UNL1        0.0204
     38 C         142.2282  132.1623  155.7128 C.ar    1  UNL1        0.0989
     39 N         142.7049  132.6874  157.0345 N.ar    1  UNL1       -0.2426
     40 C         143.1999  134.0989  157.1463 C.ar    1  UNL1        0.0959
@<TRIPOS>BOND
     1    12    13    1
     2    13     8    1
     3     8     9    1
     4     8    10   am
     5    10    11    2
     6    10     2    1
     7     2     3   ar
     8     3     4   ar
     9     4     5   ar
    10     5     1    1
    11     1    14    1
    12    14    15   ar
    13    15    16   ar
    14    16    17   ar
    15    17    18   ar
    16    18    20    1
    17    20    21   am
    18    21    22    2
    19    21    24    1
    20    24    25    1
    21    25    26    1
    22    26    27    1
    23    18    19   ar
    24     1    28    1
    25    28    29    1
    26    29    30    1
    27    30    31    1
    28    31    34    1
    29    34    35    1
    30    35    36   ar
    31    36    37   ar
    32    37    38   ar
    33    38    39   ar
    34    39    40   ar
    35    31    32    1
    36    32    33    1
    37     5     6   ar
    38     6     7   ar
    39     7     2   ar
    40    19    14   ar
    41    33    28    1
    42    27    24    1
    43    40    35   ar
    44    20    23    1
@<TRIPOS>MOLECULE
*****
 40 44 0 0 0
SMALL
GASTEIGER

@<TRIPOS>ATOM
      1 C         143.5349  141.1617  157.7652 C.3     1  UNL1        0.1031
      2 C         147.3595  141.9405  155.5256 C.ar    1  UNL1        0.0536
      3 C         147.0883  142.6533  156.8172 C.ar    1  UNL1        0.0042
      4 C         145.8134  142.3937  157.5637 C.ar    1  UNL1       -0.0025
      5 C         144.8098  141.4213  157.0186 C.ar    1  UNL1       -0.0036
      6 C         145.0810  140.7085  155.7270 C.ar    1  UNL1       -0.0025
      7 C         146.3559  140.9681  154.9805 C.ar    1  UNL1        0.0042
      8 N         148.6830  143.2674  153.7263 N.am    1  UNL1       -0.2743
      9 C         149.9579  143.5270  152.9797 C.3     1  UNL1        0.1152
     10 C         148.6344  142.2001  154.7790 C.2     1  UNL1        0.2491
     11 O         149.8606  141.3923  155.0853 O.2     1  UNL1       -0.2699
     12 C         146.5370  143.6520  152.3132 C.3     1  UNL1        0.0233
     13 C         147.4567  144.0752  153.4200 C.3     1  UNL1        0.0938
     14 C         142.6827  139.9806  157.4061 C.ar    1  UNL1       -0.0024
     15 C         141.3273  140.1907  156.7989 C.ar    1  UNL1       -0.0026
     16 C         140.4751  139.0097  156.4399 C.ar    1  UNL1        0.0010
     17 C         140.9783  137.6186  156.6881 C.ar    1  UNL1        0.0147
     18 C         142.3336  137.4085  157.2953 C.ar    1  UNL1        0.0500
     19 C         143.1859  138.5895  157.6544 C.ar    1  UNL1        0.0120
     20 N         142.8368  136.0174  157.5435 N.am    1  UNL1       -0.2839
     21 C         143.4938  135.2486  156.4357 C.2     1  UNL1        0.2256
     22 O         143.6477  135.8710  155.0795 O.2     1  UNL1       -0.2748
     23 H         142.7359  135.6089  158.4336 H       1  UNL1        0.1549
     24 C         143.9970  133.8575  156.6839 C.3     1  UNL1        0.0768
     25 C         144.5521  133.1263  157.8702 C.3     1  UNL1        0.0091
     26 C         144.7086  131.8902  157.0349 C.3     1  UNL1        0.0010
     27 C         144.1535  132.6214  155.8487 C.3     1  UNL1        0.0091
     28 N         143.1122  142.0831  158.8707 N.3     1  UNL1       -0.2644
     29 C         142.3549  143.3382  158.5527 C.3     1  UNL1        0.0901
     30 C         141.9322  144.2596  159.6583 C.3     1  UNL1        0.0899
     31 N         142.2669  143.9259  161.0819 N.3     1  UNL1       -0.2665
     32 C         143.0242  142.6708  161.3999 C.3     1  UNL1        0.0899
     33 C         143.4468  141.7494  160.2944 C.3     1  UNL1        0.0901
     34 C         141.8442  144.8473  162.1876 C.3     1  UNL1        0.1008
     35 C         140.5280  144.6384  162.8761 C.ar    1  UNL1        0.0130
     36 C         140.4863  144.3880  164.3545 C.ar    1  UNL1        0.0002
     37 C         139.1702  144.1791  165.0430 C.ar    1  UNL1        0.0204
     38 C         137.8956  144.2204  164.2530 C.ar    1  UNL1        0.0989
     39 N         137.9373  144.4707  162.7747 N.ar    1  UNL1       -0.2426
     40 C         139.2535  144.6797  162.0862 C.ar    1  UNL1        0.0959
@<TRIPOS>BOND
     1    12    13    1
     2    13     8    1
     3     8     9    1
     4     8    10   am
     5    10    11    2
     6    10     2    1
     7     2     3   ar
     8     3     4   ar
     9     4     5   ar
    10     5     1    1
    11     1    14    1
    12    14    15   ar
    13    15    16   ar
    14    16    17   ar
    15    17    18   ar
    16    18    20    1
    17    20    21   am
    18    21    22    2
    19    21    24    1
    20    24    25    1
    21    25    26    1
    22    26    27    1
    23    18    19   ar
    24     1    28    1
    25    28    29    1
    26    29    30    1
    27    30    31    1
    28    31    34    1
    29    34    35    1
    30    35    36   ar
    31    36    37   ar
    32    37    38   ar
    33    38    39   ar
    34    39    40   ar
    35    31    32    1
    36    32    33    1
    37     5     6   ar
    38     6     7   ar
    39     7     2   ar
    40    19    14   ar
    41    33    28    1
    42    27    24    1
    43    40    35   ar
    44    20    23    1
@<TRIPOS>MOLECULE
*****
 40 44 0 0 0
SMALL
GASTEIGER

@<TRIPOS>ATOM
      1 C         141.3580  141.7472  163.2378 C.3     1  UNL1        0.1031
      2 C         141.8765  140.8598  167.6188 C.ar    1  UNL1        0.0536
      3 C         142.7834  141.8433  166.9404 C.ar    1  UNL1        0.0042
      4 C         142.6105  142.1391  165.4800 C.ar    1  UNL1       -0.0025
      5 C         141.5309  141.4514  164.6981 C.ar    1  UNL1       -0.0036
      6 C         140.6240  140.4680  165.3766 C.ar    1  UNL1       -0.0025
      7 C         140.7969  140.1721  166.8370 C.ar    1  UNL1        0.0042
      8 N         141.1943  141.2649  170.0927 N.am    1  UNL1       -0.2743
      9 C         141.3671  140.9691  171.5531 C.3     1  UNL1        0.1152
     10 C         142.0494  140.5640  169.0792 C.2     1  UNL1        0.2491
     11 O         143.0774  139.5672  169.5260 O.2     1  UNL1       -0.2699
     12 C         140.4919  143.7260  169.6453 C.3     1  UNL1        0.0233
     13 C         140.1662  142.2618  169.6460 C.3     1  UNL1        0.0938
     14 C         140.8200  143.0774  162.8005 C.ar    1  UNL1       -0.0024
     15 C         139.9613  143.8817  163.7310 C.ar    1  UNL1       -0.0026
     16 C         139.4233  145.2119  163.2938 C.ar    1  UNL1        0.0010
     17 C         139.7440  145.7378  161.9261 C.ar    1  UNL1        0.0147
     18 C         140.6027  144.9335  160.9956 C.ar    1  UNL1        0.0500
     19 C         141.1407  143.6033  161.4328 C.ar    1  UNL1        0.0120
     20 N         140.9234  145.4594  159.6279 N.am    1  UNL1       -0.2839
     21 C         140.2127  144.9091  158.4271 C.2     1  UNL1        0.2256
     22 O         139.1812  143.8328  158.5940 O.2     1  UNL1       -0.2748
     23 H         141.6004  146.1658  159.5184 H       1  UNL1        0.1549
     24 C         140.5334  145.4350  157.0594 C.3     1  UNL1        0.0768
     25 C         139.8847  146.4053  156.1171 C.3     1  UNL1        0.0091
     26 C         140.9869  146.1787  155.1252 C.3     1  UNL1        0.0010
     27 C         141.6355  145.2085  156.0675 C.3     1  UNL1        0.0091
     28 N         141.7232  140.7129  162.2147 N.3     1  UNL1       -0.2644
     29 C         143.1625  140.4845  161.8598 C.3     1  UNL1        0.0901
     30 C         143.5277  139.4501  160.8366 C.3     1  UNL1        0.0899
     31 N         142.4534  138.6442  160.1684 N.3     1  UNL1       -0.2665
     32 C         141.0140  138.8726  160.5233 C.3     1  UNL1        0.0899
     33 C         140.6489  139.9070  161.5464 C.3     1  UNL1        0.0901
     34 C         142.8185  137.6098  159.1453 C.3     1  UNL1        0.1008
     35 C         142.5793  137.8782  157.6890 C.ar    1  UNL1        0.0130
     36 C         142.6917  139.2757  157.1556 C.ar    1  UNL1        0.0002
     37 C         142.4525  139.5442  155.6993 C.ar    1  UNL1        0.0204
     38 C         142.1009  138.4151  154.7764 C.ar    1  UNL1        0.0989
     39 N         141.9886  137.0177  155.3098 N.ar    1  UNL1       -0.2426
     40 C         142.2278  136.7492  156.7661 C.ar    1  UNL1        0.0959
@<TRIPOS>BOND
     1    12    13    1
     2    13     8    1
     3     8     9    1
     4     8    10   am
     5    10    11    2
     6    10     2    1
     7     2     3   ar
     8     3     4   ar
     9     4     5   ar
    10     5     1    1
    11     1    14    1
    12    14    15   ar
    13    15    16   ar
    14    16    17   ar
    15    17    18   ar
    16    18    20    1
    17    20    21   am
    18    21    22    2
    19    21    24    1
    20    24    25    1
    21    25    26    1
    22    26    27    1
    23    18    19   ar
    24     1    28    1
    25    28    29    1
    26    29    30    1
    27    30    31    1
    28    31    34    1
    29    34    35    1
    30    35    36   ar
    31    36    37   ar
    32    37    38   ar
    33    38    39   ar
    34    39    40   ar
    35    31    32    1
    36    32    33    1
    37     5     6   ar
    38     6     7   ar
    39     7     2   ar
    40    19    14   ar
    41    33    28    1
    42    27    24    1
    43    40    35   ar
    44    20    23    1
@<TRIPOS>MOLECULE
*****
 40 44 0 0 0
SMALL
GASTEIGER

@<TRIPOS>ATOM
      1 C         142.0635  138.7789  158.4183 C.3     1  UNL1        0.1031
      2 C         141.8779  136.0117  154.8745 C.ar    1  UNL1        0.0536
      3 C         143.1501  136.1421  155.6584 C.ar    1  UNL1        0.0042
      4 C         143.2119  137.0645  156.8397 C.ar    1  UNL1       -0.0025
      5 C         142.0016  137.8565  157.2370 C.ar    1  UNL1       -0.0036
      6 C         140.7295  137.7260  156.4531 C.ar    1  UNL1       -0.0025
      7 C         140.6676  136.8036  155.2719 C.ar    1  UNL1        0.0042
      8 N         141.4989  133.6368  153.8917 N.am    1  UNL1       -0.2743
      9 C         141.4370  132.7144  152.7105 C.3     1  UNL1        0.1152
     10 C         141.8161  135.0893  153.6933 C.2     1  UNL1        0.2491
     11 O         142.0715  135.6195  152.3135 O.2     1  UNL1       -0.2699
     12 C         142.3619  132.4870  156.0558 C.3     1  UNL1        0.0233
     13 C         141.2435  133.1065  155.2715 C.3     1  UNL1        0.0938
     14 C         142.9062  140.0183  158.3587 C.ar    1  UNL1       -0.0024
     15 C         143.7796  140.2749  157.1665 C.ar    1  UNL1       -0.0026
     16 C         144.6223  141.5143  157.1069 C.ar    1  UNL1        0.0010
     17 C         144.5916  142.4973  158.2395 C.ar    1  UNL1        0.0147
     18 C         143.7183  142.2408  159.4317 C.ar    1  UNL1        0.0500
     19 C         142.8755  141.0013  159.4914 C.ar    1  UNL1        0.0120
     20 N         143.6876  143.2237  160.5644 N.am    1  UNL1       -0.2839
     21 C         144.0805  142.7893  161.9453 C.2     1  UNL1        0.2256
     22 O         144.5042  141.3719  162.1936 O.2     1  UNL1       -0.2748
     23 H         143.4096  144.1540  160.4014 H       1  UNL1        0.1549
     24 C         144.0499  143.7723  163.0779 C.3     1  UNL1        0.0768
     25 C         143.6816  145.2198  163.2164 C.3     1  UNL1        0.0091
     26 C         144.0065  145.1624  164.6797 C.3     1  UNL1        0.0010
     27 C         144.3747  143.7150  164.5412 C.3     1  UNL1        0.0091
     28 N         141.2827  138.4618  159.6591 N.3     1  UNL1       -0.2644
     29 C         139.8015  138.6962  159.6936 C.3     1  UNL1        0.0901
     30 C         139.0206  138.3791  160.9345 C.3     1  UNL1        0.0899
     31 N         139.7210  137.8277  162.1409 N.3     1  UNL1       -0.2665
     32 C         141.2022  137.5933  162.1064 C.3     1  UNL1        0.0899
     33 C         141.9830  137.9104  160.8656 C.3     1  UNL1        0.0901
     34 C         138.9401  137.5106  163.3818 C.3     1  UNL1        0.1008
     35 C         139.0570  138.3948  164.5879 C.ar    1  UNL1        0.0130
     36 C         138.2890  138.0683  165.8344 C.ar    1  UNL1        0.0002
     37 C         138.4059  138.9525  167.0405 C.ar    1  UNL1        0.0204
     38 C         139.2907  140.1631  167.0000 C.ar    1  UNL1        0.0989
     39 N         140.0586  140.4895  165.7535 N.ar    1  UNL1       -0.2426
     40 C         139.9417  139.6053  164.5474 C.ar    1  UNL1        0.0959
@<TRIPOS>BOND
     1    12    13    1
     2    13     8    1
     3     8     9    1
     4     8    10   am
     5    10    11    2
     6    10     2    1
     7     2     3   ar
     8     3     4   ar
     9     4     5   ar
    10     5     1    1
    11     1    14    1
    12    14    15   ar
    13    15    16   ar
    14    16    17   ar
    15    17    18   ar
    16    18    20    1
    17    20    21   am
    18    21    22    2
    19    21    24    1
    20    24    25    1
    21    25    26    1
    22    26    27    1
    23    18    19   ar
    24     1    28    1
    25    28    29    1
    26    29    30    1
    27    30    31    1
    28    31    34    1
    29    34    35    1
    30    35    36   ar
    31    36    37   ar
    32    37    38   ar
    33    38    39   ar
    34    39    40   ar
    35    31    32    1
    36    32    33    1
    37     5     6   ar
    38     6     7   ar
    39     7     2   ar
    40    19    14   ar
    41    33    28    1
    42    27    24    1
    43    40    35   ar
    44    20    23    1
@<TRIPOS>MOLECULE
*****
 40 44 0 0 0
SMALL
GASTEIGER

@<TRIPOS>ATOM
      1 C         141.2713  138.9987  158.0652 C.3     1  UNL1        0.1031
      2 C         139.0731  142.6356  156.5851 C.ar    1  UNL1        0.0536
      3 C         139.1311  141.3984  155.7391 C.ar    1  UNL1        0.0042
      4 C         139.8639  140.1861  156.2324 C.ar    1  UNL1       -0.0025
      5 C         140.5386  140.2110  157.5718 C.ar    1  UNL1       -0.0036
      6 C         140.4806  141.4482  158.4179 C.ar    1  UNL1       -0.0025
      7 C         139.7478  142.6605  157.9245 C.ar    1  UNL1        0.0042
      8 N         139.1064  145.0626  155.6587 N.am    1  UNL1       -0.2743
      9 C         138.3736  146.2749  155.1653 C.3     1  UNL1        0.1152
     10 C         138.3404  143.8479  156.0917 C.2     1  UNL1        0.2491
     11 O         136.8416  143.8455  156.0314 O.2     1  UNL1       -0.2699
     12 C         141.3119  145.8559  156.7797 C.3     1  UNL1        0.0233
     13 C         140.6052  145.0651  155.7189 C.3     1  UNL1        0.0938
     14 C         142.1819  138.2452  157.1416 C.ar    1  UNL1       -0.0024
     15 C         143.3293  138.9495  156.4800 C.ar    1  UNL1       -0.0026
     16 C         144.2398  138.1960  155.5565 C.ar    1  UNL1        0.0010
     17 C         144.0031  136.7382  155.2944 C.ar    1  UNL1        0.0147
     18 C         142.8558  136.0339  155.9559 C.ar    1  UNL1        0.0500
     19 C         141.9452  136.7874  156.8795 C.ar    1  UNL1        0.0120
     20 N         142.6191  134.5760  155.6938 N.am    1  UNL1       -0.2839
     21 C         143.0421  133.5536  156.7064 C.2     1  UNL1        0.2256
     22 O         143.7019  133.9889  157.9813 O.2     1  UNL1       -0.2748
     23 H         142.1861  134.2903  154.8571 H       1  UNL1        0.1549
     24 C         142.8054  132.0958  156.4444 C.3     1  UNL1        0.0768
     25 C         143.2390  130.8166  157.0970 C.3     1  UNL1        0.0091
     26 C         142.4706  130.0341  156.0737 C.3     1  UNL1        0.0010
     27 C         142.0371  131.3131  155.4211 C.3     1  UNL1        0.0091
     28 N         141.0935  138.5399  159.4822 N.3     1  UNL1       -0.2644
     29 C         142.2926  138.1957  160.3151 C.3     1  UNL1        0.0901
     30 C         142.1147  137.7369  161.7322 C.3     1  UNL1        0.0899
     31 N         140.7378  137.6223  162.3162 N.3     1  UNL1       -0.2665
     32 C         139.5388  137.9665  161.4832 C.3     1  UNL1        0.0899
     33 C         139.7166  138.4253  160.0662 C.3     1  UNL1        0.0901
     34 C         140.5600  137.1635  163.7332 C.3     1  UNL1        0.1008
     35 C         140.0996  138.1313  164.7827 C.ar    1  UNL1        0.0130
     36 C         138.7258  138.0020  165.3712 C.ar    1  UNL1        0.0002
     37 C         138.2654  138.9698  166.4206 C.ar    1  UNL1        0.0204
     38 C         139.1788  140.0668  166.8817 C.ar    1  UNL1        0.0989
     39 N         140.5525  140.1960  166.2932 N.ar    1  UNL1       -0.2426
     40 C         141.0128  139.2282  165.2437 C.ar    1  UNL1        0.0959
@<TRIPOS>BOND
     1    12    13    1
     2    13     8    1
     3     8     9    1
     4     8    10   am
     5    10    11    2
     6    10     2    1
     7     2     3   ar
     8     3     4   ar
     9     4     5   ar
    10     5     1    1
    11     1    14    1
    12    14    15   ar
    13    15    16   ar
    14    16    17   ar
    15    17    18   ar
    16    18    20    1
    17    20    21   am
    18    21    22    2
    19    21    24    1
    20    24    25    1
    21    25    26    1
    22    26    27    1
    23    18    19   ar
    24     1    28    1
    25    28    29    1
    26    29    30    1
    27    30    31    1
    28    31    34    1
    29    34    35    1
    30    35    36   ar
    31    36    37   ar
    32    37    38   ar
    33    38    39   ar
    34    39    40   ar
    35    31    32    1
    36    32    33    1
    37     5     6   ar
    38     6     7   ar
    39     7     2   ar
    40    19    14   ar
    41    33    28    1
    42    27    24    1
    43    40    35   ar
    44    20    23    1
@<TRIPOS>MOLECULE
*****
 40 44 0 0 0
SMALL
GASTEIGER

@<TRIPOS>ATOM
      1 C         143.2280  139.3704  158.1490 C.3     1  UNL1        0.1031
      2 C         142.7403  139.7655  162.6050 C.ar    1  UNL1        0.0536
      3 C         143.8386  138.9121  162.0435 C.ar    1  UNL1        0.0042
      4 C         144.0011  138.7804  160.5581 C.ar    1  UNL1       -0.0025
      5 C         143.0654  139.5021  159.6344 C.ar    1  UNL1       -0.0036
      6 C         141.9672  140.3556  160.1959 C.ar    1  UNL1       -0.0025
      7 C         141.8046  140.4873  161.6812 C.ar    1  UNL1        0.0042
      8 N         143.2642  141.0109  164.8242 N.am    1  UNL1       -0.2743
      9 C         143.1017  141.1426  166.3095 C.3     1  UNL1        0.1152
     10 C         142.5778  139.8972  164.0904 C.2     1  UNL1        0.2491
     11 O         141.7288  138.9152  164.8419 O.2     1  UNL1       -0.2699
     12 C         145.5721  141.7155  163.8613 C.3     1  UNL1        0.0233
     13 C         144.1133  141.9929  164.0726 C.3     1  UNL1        0.0938
     14 C         142.4044  138.3727  157.3899 C.ar    1  UNL1       -0.0024
     15 C         140.9697  138.6723  157.0706 C.ar    1  UNL1       -0.0026
     16 C         140.1461  137.6746  156.3116 C.ar    1  UNL1        0.0010
     17 C         140.7572  136.3773  155.8718 C.ar    1  UNL1        0.0147
     18 C         142.1918  136.0776  156.1910 C.ar    1  UNL1        0.0500
     19 C         143.0155  137.0754  156.9501 C.ar    1  UNL1        0.0120
     20 N         142.8029  134.7802  155.7512 N.am    1  UNL1       -0.2839
     21 C         143.4400  133.8712  156.7600 C.2     1  UNL1        0.2256
     22 O         143.4660  134.2595  158.2087 O.2     1  UNL1       -0.2748
     23 H         142.7858  134.5254  154.8004 H       1  UNL1        0.1549
     24 C         144.0511  132.5738  156.3202 C.3     1  UNL1        0.0768
     25 C         143.8080  131.6154  155.1922 C.3     1  UNL1        0.0091
     26 C         144.9152  130.7391  155.6982 C.3     1  UNL1        0.0010
     27 C         145.1583  131.6975  156.8261 C.3     1  UNL1        0.0091
     28 N         144.2141  140.2365  157.4227 N.3     1  UNL1       -0.2644
     29 C         144.6924  139.8448  156.0561 C.3     1  UNL1        0.0901
     30 C         145.6785  140.7109  155.3298 C.3     1  UNL1        0.0899
     31 N         146.1864  141.9686  155.9702 N.3     1  UNL1       -0.2665
     32 C         145.7081  142.3603  157.3369 C.3     1  UNL1        0.0899
     33 C         144.7220  141.4943  158.0632 C.3     1  UNL1        0.0901
     34 C         147.1726  142.8347  155.2439 C.3     1  UNL1        0.1008
     35 C         148.3488  142.2133  154.5510 C.ar    1  UNL1        0.0130
     36 C         148.3797  142.1310  153.0536 C.ar    1  UNL1        0.0002
     37 C         149.5559  141.5095  152.3607 C.ar    1  UNL1        0.0204
     38 C         150.7014  140.9703  153.1652 C.ar    1  UNL1        0.0989
     39 N         150.6706  141.0526  154.6626 N.ar    1  UNL1       -0.2426
     40 C         149.4943  141.6741  155.3555 C.ar    1  UNL1        0.0959
@<TRIPOS>BOND
     1    12    13    1
     2    13     8    1
     3     8     9    1
     4     8    10   am
     5    10    11    2
     6    10     2    1
     7     2     3   ar
     8     3     4   ar
     9     4     5   ar
    10     5     1    1
    11     1    14    1
    12    14    15   ar
    13    15    16   ar
    14    16    17   ar
    15    17    18   ar
    16    18    20    1
    17    20    21   am
    18    21    22    2
    19    21    24    1
    20    24    25    1
    21    25    26    1
    22    26    27    1
    23    18    19   ar
    24     1    28    1
    25    28    29    1
    26    29    30    1
    27    30    31    1
    28    31    34    1
    29    34    35    1
    30    35    36   ar
    31    36    37   ar
    32    37    38   ar
    33    38    39   ar
    34    39    40   ar
    35    31    32    1
    36    32    33    1
    37     5     6   ar
    38     6     7   ar
    39     7     2   ar
    40    19    14   ar
    41    33    28    1
    42    27    24    1
    43    40    35   ar
    44    20    23    1
@<TRIPOS>MOLECULE
*****
 40 44 0 0 0
SMALL
GASTEIGER

@<TRIPOS>ATOM
      1 C         140.3110  139.0899  158.2149 C.3     1  UNL1        0.1031
      2 C         140.2037  139.0609  162.7135 C.ar    1  UNL1        0.0536
      3 C         141.0823  140.0383  161.9906 C.ar    1  UNL1        0.0042
      4 C         141.1180  140.0480  160.4910 C.ar    1  UNL1       -0.0025
      5 C         140.2752  139.0803  159.7145 C.ar    1  UNL1       -0.0036
      6 C         139.3966  138.1029  160.4374 C.ar    1  UNL1       -0.0025
      7 C         139.3609  138.0932  161.9370 C.ar    1  UNL1        0.0042
      8 N         139.1108  139.8256  164.9431 N.am    1  UNL1       -0.2743
      9 C         139.0750  139.8159  166.4426 C.3     1  UNL1        0.1152
     10 C         140.1679  139.0513  164.2131 C.2     1  UNL1        0.2491
     11 O         141.1892  138.2673  164.9826 O.2     1  UNL1       -0.2699
     12 C         138.2064  142.1018  164.0766 C.3     1  UNL1        0.0233
     13 C         138.0894  140.6096  164.1735 C.3     1  UNL1        0.0938
     14 C         139.6429  140.1978  157.4559 C.ar    1  UNL1       -0.0024
     15 C         140.4705  141.1922  156.6966 C.ar    1  UNL1       -0.0026
     16 C         139.8024  142.3001  155.9376 C.ar    1  UNL1        0.0010
     17 C         138.3067  142.4137  155.9378 C.ar    1  UNL1        0.0147
     18 C         137.4791  141.4194  156.6970 C.ar    1  UNL1        0.0500
     19 C         138.1472  140.3114  157.4560 C.ar    1  UNL1        0.0120
     20 N         135.9834  141.5330  156.6971 N.am    1  UNL1       -0.2839
     21 C         135.1526  140.4989  155.9968 C.2     1  UNL1        0.2256
     22 O         135.8176  139.3512  155.2963 O.2     1  UNL1       -0.2748
     23 H         135.5470  142.2862  157.1569 H       1  UNL1        0.1549
     24 C         133.6570  140.6125  155.9970 C.3     1  UNL1        0.0768
     25 C         132.6548  141.4254  155.2320 C.3     1  UNL1        0.0091
     26 C         131.5417  140.7731  155.9972 C.3     1  UNL1        0.0010
     27 C         132.5438  139.9603  156.7621 C.3     1  UNL1        0.0091
     28 N         141.0149  137.9917  157.4744 N.3     1  UNL1       -0.2644
     29 C         140.3012  137.2420  156.3888 C.3     1  UNL1        0.0901
     30 C         141.0052  136.1437  155.6482 C.3     1  UNL1        0.0899
     31 N         142.4227  135.7952  155.9934 N.3     1  UNL1       -0.2665
     32 C         143.1364  136.5450  157.0790 C.3     1  UNL1        0.0899
     33 C         142.4325  137.6432  157.8195 C.3     1  UNL1        0.0901
     34 C         143.1267  134.6969  155.2528 C.3     1  UNL1        0.1008
     35 C         143.2013  133.3210  155.8453 C.ar    1  UNL1        0.0130
     36 C         144.3082  132.9728  156.7960 C.ar    1  UNL1        0.0002
     37 C         144.3829  131.5968  157.3885 C.ar    1  UNL1        0.0204
     38 C         143.3507  130.5690  157.0304 C.ar    1  UNL1        0.0989
     39 N         142.2439  130.9172  156.0797 N.ar    1  UNL1       -0.2426
     40 C         142.1692  132.2931  155.4872 C.ar    1  UNL1        0.0959
@<TRIPOS>BOND
     1    12    13    1
     2    13     8    1
     3     8     9    1
     4     8    10   am
     5    10    11    2
     6    10     2    1
     7     2     3   ar
     8     3     4   ar
     9     4     5   ar
    10     5     1    1
    11     1    14    1
    12    14    15   ar
    13    15    16   ar
    14    16    17   ar
    15    17    18   ar
    16    18    20    1
    17    20    21   am
    18    21    22    2
    19    21    24    1
    20    24    25    1
    21    25    26    1
    22    26    27    1
    23    18    19   ar
    24     1    28    1
    25    28    29    1
    26    29    30    1
    27    30    31    1
    28    31    34    1
    29    34    35    1
    30    35    36   ar
    31    36    37   ar
    32    37    38   ar
    33    38    39   ar
    34    39    40   ar
    35    31    32    1
    36    32    33    1
    37     5     6   ar
    38     6     7   ar
    39     7     2   ar
    40    19    14   ar
    41    33    28    1
    42    27    24    1
    43    40    35   ar
    44    20    23    1
