@<TRIPOS>MOLECULE
*****
 17 17 0 0 0
SMALL
GASTEIGER

@<TRIPOS>ATOM
      1 C         139.3021  140.2084  168.0437 C.2     1  UNL1       -0.0088
      2 C         138.4607  139.1802  167.3475 C.2     1  UNL1       -0.0032
      3 C         138.5018  139.0648  165.8525 C.ar    1  UNL1       -0.0002
      4 C         138.1724  140.2536  164.9991 C.ar    1  UNL1        0.0009
      5 C         138.2135  140.1382  163.5041 C.ar    1  UNL1        0.0114
      6 C         138.5839  138.8340  162.8625 C.ar    1  UNL1        0.0577
      7 CL        138.6250  138.7186  161.3675 Cl      1  UNL1       -0.0822
      8 C         138.9133  137.6452  163.7158 C.ar    1  UNL1        0.0114
      9 C         138.8722  137.7606  165.2108 C.ar    1  UNL1        0.0009
     10 C         139.2610  140.3238  169.5387 C.3     1  UNL1        0.0989
     11 N         140.2295  141.2230  170.2484 N.3     1  UNL1       -0.2690
     12 C         139.8483  142.6403  170.5579 C.3     1  UNL1        0.0724
     13 C         140.4334  143.7661  169.7578 C.3     1  UNL1        0.0188
     14 C         141.5790  140.7047  170.6486 C.3     1  UNL1        0.0724
     15 C         142.6431  140.5034  169.6107 C.3     1  UNL1        0.0173
     16 C         144.1281  142.6179  169.8810 C.3     1  UNL1        0.0000
     17 C         143.3373  141.6889  169.0084 C.3     1  UNL1        0.0014
@<TRIPOS>BOND
     1    16    17    1
     2    17    15    1
     3    15    14    1
     4    14    11    1
     5    11    12    1
     6    12    13    1
     7    11    10    1
     8    10     1    1
     9     1     2    2
    10     2     3    1
    11     3     4   ar
    12     4     5   ar
    13     5     6   ar
    14     6     7    1
    15     6     8   ar
    16     8     9   ar
    17     9     3   ar
@<TRIPOS>MOLECULE
*****
 17 17 0 0 0
SMALL
GASTEIGER

@<TRIPOS>ATOM
      1 C         138.8709  138.5258  165.6149 C.2     1  UNL1       -0.0088
      2 C         139.9216  139.5865  165.7589 C.2     1  UNL1       -0.0032
      3 C         139.9489  140.4540  166.9823 C.ar    1  UNL1       -0.0002
      4 C         139.4209  139.9303  168.2849 C.ar    1  UNL1        0.0009
      5 C         139.4483  140.7978  169.5084 C.ar    1  UNL1        0.0114
      6 C         140.0036  142.1889  169.4291 C.ar    1  UNL1        0.0577
      7 CL        140.0309  143.0564  170.6526 Cl      1  UNL1       -0.0822
      8 C         140.5316  142.7126  168.1265 C.ar    1  UNL1        0.0114
      9 C         140.5043  141.8451  166.9031 C.ar    1  UNL1        0.0009
     10 C         138.8436  137.6583  164.3915 C.3     1  UNL1        0.0989
     11 N         139.1295  138.2526  163.0442 N.3     1  UNL1       -0.2690
     12 C         140.3993  137.9049  162.3252 C.3     1  UNL1        0.0724
     13 C         141.6519  137.6332  163.1043 C.3     1  UNL1        0.0188
     14 C         138.1457  139.1945  162.4158 C.3     1  UNL1        0.0724
     15 C         138.3025  140.6750  162.5993 C.3     1  UNL1        0.0173
     16 C         137.8388  142.5317  164.3564 C.3     1  UNL1        0.0000
     17 C         137.3412  141.4289  163.4697 C.3     1  UNL1        0.0014
@<TRIPOS>BOND
     1    16    17    1
     2    17    15    1
     3    15    14    1
     4    14    11    1
     5    11    12    1
     6    12    13    1
     7    11    10    1
     8    10     1    1
     9     1     2    2
    10     2     3    1
    11     3     4   ar
    12     4     5   ar
    13     5     6   ar
    14     6     7    1
    15     6     8   ar
    16     8     9   ar
    17     9     3   ar
@<TRIPOS>MOLECULE
*****
 17 17 0 0 0
SMALL
GASTEIGER

@<TRIPOS>ATOM
      1 C         138.2986  140.9327  164.9316 C.2     1  UNL1       -0.0088
      2 C         139.7015  141.1253  165.4261 C.2     1  UNL1       -0.0032
      3 C         139.9622  141.3013  166.8927 C.ar    1  UNL1       -0.0002
      4 C         139.6060  140.2068  167.8545 C.ar    1  UNL1        0.0009
      5 C         139.8667  140.3829  169.3211 C.ar    1  UNL1        0.0114
      6 C         140.4837  141.6534  169.8260 C.ar    1  UNL1        0.0577
      7 CL        140.7445  141.8295  171.2926 Cl      1  UNL1       -0.0822
      8 C         140.8400  142.7479  168.8642 C.ar    1  UNL1        0.0114
      9 C         140.5793  142.5719  167.3976 C.ar    1  UNL1        0.0009
     10 C         138.0378  140.7566  163.4649 C.3     1  UNL1        0.0989
     11 N         138.6247  141.7216  162.4777 N.3     1  UNL1       -0.2690
     12 C         139.9331  141.4116  161.8130 C.3     1  UNL1        0.0724
     13 C         141.1712  142.1606  162.2082 C.3     1  UNL1        0.0188
     14 C         137.9031  142.9965  162.1553 C.3     1  UNL1        0.0724
     15 C         137.6802  144.0235  163.2257 C.3     1  UNL1        0.0173
     16 C         138.6104  144.9442  165.4699 C.3     1  UNL1        0.0000
     17 C         138.8342  144.5079  164.0523 C.3     1  UNL1        0.0014
@<TRIPOS>BOND
     1    16    17    1
     2    17    15    1
     3    15    14    1
     4    14    11    1
     5    11    12    1
     6    12    13    1
     7    11    10    1
     8    10     1    1
     9     1     2    2
    10     2     3    1
    11     3     4   ar
    12     4     5   ar
    13     5     6   ar
    14     6     7    1
    15     6     8   ar
    16     8     9   ar
    17     9     3   ar
@<TRIPOS>MOLECULE
*****
 17 17 0 0 0
SMALL
GASTEIGER

@<TRIPOS>ATOM
      1 C         139.4973  140.9204  166.5498 C.2     1  UNL1       -0.0088
      2 C         140.4493  142.0757  166.4553 C.2     1  UNL1       -0.0032
      3 C         140.2846  143.0963  165.3684 C.ar    1  UNL1       -0.0002
      4 C         138.9138  143.5701  164.9860 C.ar    1  UNL1        0.0009
      5 C         138.7492  144.5907  163.8991 C.ar    1  UNL1        0.0114
      6 C         139.9553  145.1374  163.1947 C.ar    1  UNL1        0.0577
      7 CL        139.7906  146.1580  162.1078 Cl      1  UNL1       -0.0822
      8 C         141.3261  144.6636  163.5771 C.ar    1  UNL1        0.0114
      9 C         141.4908  143.6430  164.6640 C.ar    1  UNL1        0.0009
     10 C         139.6619  139.8998  167.6367 C.3     1  UNL1        0.0989
     11 N         140.1933  140.3114  168.9777 N.3     1  UNL1       -0.2690
     12 C         139.3664  141.1815  169.8772 C.3     1  UNL1        0.0724
     13 C         139.8609  142.5435  170.2650 C.3     1  UNL1        0.0188
     14 C         141.5515  139.8528  169.4192 C.3     1  UNL1        0.0724
     15 C         142.7778  140.3537  168.7152 C.3     1  UNL1        0.0173
     16 C         143.8834  142.4013  169.8705 C.3     1  UNL1        0.0000
     17 C         143.1051  141.8175  168.7289 C.3     1  UNL1        0.0014
@<TRIPOS>BOND
     1    16    17    1
     2    17    15    1
     3    15    14    1
     4    14    11    1
     5    11    12    1
     6    12    13    1
     7    11    10    1
     8    10     1    1
     9     1     2    2
    10     2     3    1
    11     3     4   ar
    12     4     5   ar
    13     5     6   ar
    14     6     7    1
    15     6     8   ar
    16     8     9   ar
    17     9     3   ar
@<TRIPOS>MOLECULE
*****
 17 17 0 0 0
SMALL
GASTEIGER

@<TRIPOS>ATOM
      1 C         140.2112  141.0950  166.2580 C.2     1  UNL1       -0.0088
      2 C         139.9140  142.5561  166.4216 C.2     1  UNL1       -0.0032
      3 C         139.8789  143.4535  165.2202 C.ar    1  UNL1       -0.0002
      4 C         138.5660  143.8089  164.5877 C.ar    1  UNL1        0.0009
      5 C         138.5309  144.7063  163.3862 C.ar    1  UNL1        0.0114
      6 C         139.8086  145.2482  162.8172 C.ar    1  UNL1        0.0577
      7 CL        139.7734  146.1455  161.6158 Cl      1  UNL1       -0.0822
      8 C         141.1214  144.8927  163.4497 C.ar    1  UNL1        0.0114
      9 C         141.1566  143.9954  164.6512 C.ar    1  UNL1        0.0009
     10 C         140.2464  140.1977  167.4595 C.3     1  UNL1        0.0989
     11 N         141.2927  140.3988  168.5155 N.3     1  UNL1       -0.2690
     12 C         142.6965  140.7524  168.1226 C.3     1  UNL1        0.0724
     13 C         143.1460  142.1831  168.1528 C.3     1  UNL1        0.0188
     14 C         140.9351  140.2463  169.9642 C.3     1  UNL1        0.0724
     15 C         140.7085  141.4623  170.8128 C.3     1  UNL1        0.0173
     16 C         140.4462  143.8712  169.8757 C.3     1  UNL1        0.0000
     17 C         139.8338  142.5735  170.3128 C.3     1  UNL1        0.0014
@<TRIPOS>BOND
     1    16    17    1
     2    17    15    1
     3    15    14    1
     4    14    11    1
     5    11    12    1
     6    12    13    1
     7    11    10    1
     8    10     1    1
     9     1     2    2
    10     2     3    1
    11     3     4   ar
    12     4     5   ar
    13     5     6   ar
    14     6     7    1
    15     6     8   ar
    16     8     9   ar
    17     9     3   ar
@<TRIPOS>MOLECULE
*****
 17 17 0 0 0
SMALL
GASTEIGER

@<TRIPOS>ATOM
      1 C         140.8242  141.8291  164.5357 C.2     1  UNL1       -0.0088
      2 C         139.7787  141.3422  165.4947 C.2     1  UNL1       -0.0032
      3 C         140.0523  141.3491  166.9695 C.ar    1  UNL1       -0.0002
      4 C         140.6497  142.5638  167.6158 C.ar    1  UNL1        0.0009
      5 C         140.9232  142.5707  169.0906 C.ar    1  UNL1        0.0114
      6 C         140.5994  141.3630  169.9192 C.ar    1  UNL1        0.0577
      7 CL        140.8730  141.3699  171.3940 Cl      1  UNL1       -0.0822
      8 C         140.0020  140.1483  169.2729 C.ar    1  UNL1        0.0114
      9 C         139.7285  140.1414  167.7980 C.ar    1  UNL1        0.0009
     10 C         140.5507  141.8222  163.0608 C.3     1  UNL1        0.0989
     11 N         139.9289  143.0210  162.4078 N.3     1  UNL1       -0.2690
     12 C         140.8000  144.1058  161.8471 C.3     1  UNL1        0.0724
     13 C         141.4739  145.0783  162.7691 C.3     1  UNL1        0.0188
     14 C         138.4361  143.1349  162.3154 C.3     1  UNL1        0.0724
     15 C         137.7149  144.1931  163.0965 C.3     1  UNL1        0.0173
     16 C         138.7205  144.9002  165.3852 C.3     1  UNL1        0.0000
     17 C         137.6980  144.1383  164.5954 C.3     1  UNL1        0.0014
@<TRIPOS>BOND
     1    16    17    1
     2    17    15    1
     3    15    14    1
     4    14    11    1
     5    11    12    1
     6    12    13    1
     7    11    10    1
     8    10     1    1
     9     1     2    2
    10     2     3    1
    11     3     4   ar
    12     4     5   ar
    13     5     6   ar
    14     6     7    1
    15     6     8   ar
    16     8     9   ar
    17     9     3   ar
@<TRIPOS>MOLECULE
*****
 17 17 0 0 0
SMALL
GASTEIGER

@<TRIPOS>ATOM
      1 C         142.9662  142.1686  166.1331 C.2     1  UNL1       -0.0088
      2 C         141.7217  141.9916  165.3147 C.2     1  UNL1       -0.0032
      3 C         140.6358  141.0724  165.7901 C.ar    1  UNL1       -0.0002
      4 C         140.4710  140.8015  167.2562 C.ar    1  UNL1        0.0009
      5 C         139.3851  139.8823  167.7316 C.ar    1  UNL1        0.0114
      6 C         138.4641  139.2341  166.7410 C.ar    1  UNL1        0.0577
      7 CL        137.3782  138.3149  167.2164 Cl      1  UNL1       -0.0822
      8 C         138.6289  139.5050  165.2749 C.ar    1  UNL1        0.0114
      9 C         139.7148  140.4242  164.7995 C.ar    1  UNL1        0.0009
     10 C         144.0520  143.0878  165.6577 C.3     1  UNL1        0.0989
     11 N         144.5743  142.9701  164.2564 N.3     1  UNL1       -0.2690
     12 C         144.1410  143.9530  163.2095 C.3     1  UNL1        0.0724
     13 C         143.2933  143.4982  162.0587 C.3     1  UNL1        0.0188
     14 C         145.5297  141.8693  163.9021 C.3     1  UNL1        0.0724
     15 C         145.0065  140.5447  163.4312 C.3     1  UNL1        0.0173
     16 C         143.4877  138.8207  164.6439 C.3     1  UNL1        0.0000
     17 C         144.8442  139.4139  164.4032 C.3     1  UNL1        0.0014
@<TRIPOS>BOND
     1    16    17    1
     2    17    15    1
     3    15    14    1
     4    14    11    1
     5    11    12    1
     6    12    13    1
     7    11    10    1
     8    10     1    1
     9     1     2    2
    10     2     3    1
    11     3     4   ar
    12     4     5   ar
    13     5     6   ar
    14     6     7    1
    15     6     8   ar
    16     8     9   ar
    17     9     3   ar
@<TRIPOS>MOLECULE
*****
 17 17 0 0 0
SMALL
GASTEIGER

@<TRIPOS>ATOM
      1 C         139.5074  140.2986  167.2697 C.2     1  UNL1       -0.0088
      2 C         139.0639  139.0869  166.5049 C.2     1  UNL1       -0.0032
      3 C         138.6795  139.2110  165.0603 C.ar    1  UNL1       -0.0002
      4 C         138.8885  138.0557  164.1267 C.ar    1  UNL1        0.0009
      5 C         138.5042  138.1797  162.6821 C.ar    1  UNL1        0.0114
      6 C         137.9109  139.4591  162.1711 C.ar    1  UNL1        0.0577
      7 CL        137.5266  139.5832  160.7265 Cl      1  UNL1       -0.0822
      8 C         137.7019  140.6144  163.1046 C.ar    1  UNL1        0.0114
      9 C         138.0862  140.4903  164.5493 C.ar    1  UNL1        0.0009
     10 C         139.8917  140.1745  168.7144 C.3     1  UNL1        0.0989
     11 N         141.3329  140.2740  169.1182 N.3     1  UNL1       -0.2690
     12 C         141.8460  139.4644  170.2721 C.3     1  UNL1        0.0724
     13 C         142.8550  138.3796  170.0373 C.3     1  UNL1        0.0188
     14 C         142.2609  141.1830  168.3683 C.3     1  UNL1        0.0724
     15 C         142.6553  142.5046  168.9581 C.3     1  UNL1        0.0173
     16 C         140.4987  143.7486  169.7009 C.3     1  UNL1        0.0000
     17 C         141.8193  143.1228  170.0393 C.3     1  UNL1        0.0014
@<TRIPOS>BOND
     1    16    17    1
     2    17    15    1
     3    15    14    1
     4    14    11    1
     5    11    12    1
     6    12    13    1
     7    11    10    1
     8    10     1    1
     9     1     2    2
    10     2     3    1
    11     3     4   ar
    12     4     5   ar
    13     5     6   ar
    14     6     7    1
    15     6     8   ar
    16     8     9   ar
    17     9     3   ar
@<TRIPOS>MOLECULE
*****
 17 17 0 0 0
SMALL
GASTEIGER

@<TRIPOS>ATOM
      1 C         140.4779  140.8378  164.4296 C.2     1  UNL1       -0.0088
      2 C         139.4964  140.5037  165.5135 C.2     1  UNL1       -0.0032
      3 C         139.7851  140.8932  166.9330 C.ar    1  UNL1       -0.0002
      4 C         139.4087  139.9716  168.0550 C.ar    1  UNL1        0.0009
      5 C         139.6975  140.3611  169.4744 C.ar    1  UNL1        0.0114
      6 C         140.3626  141.6722  169.7719 C.ar    1  UNL1        0.0577
      7 CL        140.6514  142.0617  171.1914 Cl      1  UNL1       -0.0822
      8 C         140.7391  142.5938  168.6499 C.ar    1  UNL1        0.0114
      9 C         140.4503  142.2043  167.2304 C.ar    1  UNL1        0.0009
     10 C         140.1891  140.4483  163.0101 C.3     1  UNL1        0.0989
     11 N         138.7795  140.4721  162.4978 N.3     1  UNL1       -0.2690
     12 C         138.0282  139.1876  162.3095 C.3     1  UNL1        0.0724
     13 C         138.7050  137.8764  162.5790 C.3     1  UNL1        0.0188
     14 C         138.1212  141.7804  162.1739 C.3     1  UNL1        0.0724
     15 C         137.4306  142.5601  163.2534 C.3     1  UNL1        0.0173
     16 C         138.5221  144.3336  164.8068 C.3     1  UNL1        0.0000
     17 C         137.8289  143.9807  163.5243 C.3     1  UNL1        0.0014
@<TRIPOS>BOND
     1    16    17    1
     2    17    15    1
     3    15    14    1
     4    14    11    1
     5    11    12    1
     6    12    13    1
     7    11    10    1
     8    10     1    1
     9     1     2    2
    10     2     3    1
    11     3     4   ar
    12     4     5   ar
    13     5     6   ar
    14     6     7    1
    15     6     8   ar
    16     8     9   ar
    17     9     3   ar
