@<TRIPOS>MOLECULE
*****
 33 37 0 0 0
SMALL
GASTEIGER

@<TRIPOS>ATOM
      1 C         140.2700  138.7730  160.9924 C.ar    1  UNL1        0.1065
      2 N         141.5144  138.1975  160.3839 N.ar    1  UNL1       -0.1679
      3 N         141.4420  138.4021  158.8996 N.ar    1  UNL1       -0.2340
      4 C         140.1529  139.1040  158.5908 C.ar    1  UNL1        0.1653
      5 N         139.5450  139.5640  157.2990 N.ar    1  UNL1       -0.2050
      6 C         138.2126  140.2534  157.3006 C.ar    1  UNL1        0.2014
      7 N         137.4883  140.4826  158.5939 N.ar    1  UNL1       -0.2093
      8 C         138.0962  140.0225  159.8857 C.ar    1  UNL1        0.1316
      9 N         137.3719  140.2517  161.1791 N.pl3   1  UNL1       -0.3425
     10 C         139.4285  139.3333  159.8842 C.ar    1  UNL1        0.0860
     11 H         136.4975  140.7041  161.1802 H       1  UNL1        0.1437
     12 H         137.7709  139.9498  162.0270 H       1  UNL1        0.1437
     13 C         139.3293  139.9751  167.6946 C.ar    1  UNL1        0.1386
     14 C         140.1023  141.1124  167.0955 C.ar    1  UNL1        0.0369
     15 C         140.4451  141.0994  165.6353 C.ar    1  UNL1        0.0031
     16 C         140.0148  139.9492  164.7741 C.ar    1  UNL1        0.0002
     17 C         140.3575  139.9362  163.3138 C.ar    1  UNL1        0.0016
     18 C         139.9273  138.7859  162.4526 C.ar    1  UNL1        0.0195
     19 C         139.1542  137.6485  163.0517 C.ar    1  UNL1        0.0016
     20 C         138.8115  137.6615  164.5119 C.ar    1  UNL1        0.0001
     21 C         139.2418  138.8119  165.3731 C.ar    1  UNL1        0.0030
     22 C         138.8991  138.8248  166.8334 C.ar    1  UNL1        0.0369
     23 O         138.9866  139.9880  169.1549 O.3     1  UNL1       -0.4755
     24 C         141.4012  139.5145  169.9888 C.3     1  UNL1        0.0512
     25 C         140.0679  140.1754  170.1774 C.3     1  UNL1        0.2055
     26 C         142.4770  137.9791  157.8998 C.3     1  UNL1        0.1291
     27 C         142.2860  136.7177  157.1107 C.3     1  UNL1        0.0272
     28 C         141.2364  136.6539  156.0410 C.3     1  UNL1        0.0194
     29 C         141.0454  135.3926  155.2519 C.3     1  UNL1        0.0722
     30 N         141.9041  134.1951  155.5325 N.3     1  UNL1       -0.2715
     31 C         141.7131  132.9338  154.7434 C.3     1  UNL1        0.0896
     32 C         142.9537  134.2590  156.6022 C.3     1  UNL1        0.0722
     33 C         143.1447  135.5203  157.3913 C.3     1  UNL1        0.0194
@<TRIPOS>BOND
     1    24    25    1
     2    25    23    1
     3    23    13    1
     4    13    14   ar
     5    14    15   ar
     6    15    16   ar
     7    16    17   ar
     8    17    18   ar
     9    18     1    1
    10     1     2   ar
    11     2     3   ar
    12     3    26    1
    13    26    27    1
    14    27    28    1
    15    28    29    1
    16    29    30    1
    17    30    31    1
    18    30    32    1
    19    32    33    1
    20     3     4   ar
    21     4     5   ar
    22     5     6   ar
    23     6     7   ar
    24     7     8   ar
    25     8     9    1
    26     8    10   ar
    27    18    19   ar
    28    19    20   ar
    29    20    21   ar
    30    21    22   ar
    31    22    13   ar
    32    21    16   ar
    33    10     1   ar
    34    33    27    1
    35    10     4   ar
    36     9    11    1
    37     9    12    1
@<TRIPOS>MOLECULE
*****
 33 37 0 0 0
SMALL
GASTEIGER

@<TRIPOS>ATOM
      1 C         140.9383  138.6331  159.9449 C.ar    1  UNL1        0.1065
      2 N         142.1010  137.8322  159.4381 N.ar    1  UNL1       -0.1679
      3 N         141.9804  137.7330  157.9462 N.ar    1  UNL1       -0.2340
      4 C         140.7432  138.4725  157.5310 C.ar    1  UNL1        0.1653
      5 N         140.1198  138.7112  156.1877 N.ar    1  UNL1       -0.2050
      6 C         138.8523  139.5062  156.0797 C.ar    1  UNL1        0.2014
      7 N         138.2083  140.0625  157.3149 N.ar    1  UNL1       -0.2093
      8 C         138.8317  139.8238  158.6582 C.ar    1  UNL1        0.1316
      9 N         138.1877  140.3800  159.8934 N.pl3   1  UNL1       -0.3425
     10 C         140.0991  139.0288  158.7662 C.ar    1  UNL1        0.0860
     11 H         137.3558  140.9018  159.8225 H       1  UNL1        0.1437
     12 H         138.5968  140.2233  160.7751 H       1  UNL1        0.1437
     13 C         139.0034  139.0949  166.5246 C.ar    1  UNL1        0.1386
     14 C         138.4444  137.8336  165.9358 C.ar    1  UNL1        0.0369
     15 C         138.7196  137.4890  164.5021 C.ar    1  UNL1        0.0031
     16 C         139.5538  138.4057  163.6572 C.ar    1  UNL1        0.0002
     17 C         139.8290  138.0610  162.2235 C.ar    1  UNL1        0.0016
     18 C         140.6631  138.9777  161.3786 C.ar    1  UNL1        0.0195
     19 C         141.2221  140.2390  161.9674 C.ar    1  UNL1        0.0016
     20 C         140.9469  140.5836  163.4011 C.ar    1  UNL1        0.0001
     21 C         140.1127  139.6669  164.2460 C.ar    1  UNL1        0.0030
     22 C         139.8376  140.0115  165.6797 C.ar    1  UNL1        0.0369
     23 O         138.7282  139.4395  167.9583 O.3     1  UNL1       -0.4755
     24 C         139.3111  140.9521  169.9886 C.3     1  UNL1        0.0512
     25 C         139.7343  140.2235  168.7477 C.3     1  UNL1        0.2055
     26 C         142.9302  137.0195  157.0304 C.3     1  UNL1        0.1291
     27 C         142.6772  135.5899  156.6534 C.3     1  UNL1        0.0272
     28 C         141.6521  135.2597  155.6094 C.3     1  UNL1        0.0194
     29 C         141.3991  133.8300  155.2324 C.3     1  UNL1        0.0722
     30 N         142.1712  132.7306  155.8995 N.3     1  UNL1       -0.2715
     31 C         141.9181  131.3009  155.5225 C.3     1  UNL1        0.0896
     32 C         143.1963  133.0608  156.9436 C.3     1  UNL1        0.0722
     33 C         143.4493  134.4904  157.3205 C.3     1  UNL1        0.0194
@<TRIPOS>BOND
     1    24    25    1
     2    25    23    1
     3    23    13    1
     4    13    14   ar
     5    14    15   ar
     6    15    16   ar
     7    16    17   ar
     8    17    18   ar
     9    18     1    1
    10     1     2   ar
    11     2     3   ar
    12     3    26    1
    13    26    27    1
    14    27    28    1
    15    28    29    1
    16    29    30    1
    17    30    31    1
    18    30    32    1
    19    32    33    1
    20     3     4   ar
    21     4     5   ar
    22     5     6   ar
    23     6     7   ar
    24     7     8   ar
    25     8     9    1
    26     8    10   ar
    27    18    19   ar
    28    19    20   ar
    29    20    21   ar
    30    21    22   ar
    31    22    13   ar
    32    21    16   ar
    33    10     1   ar
    34    33    27    1
    35    10     4   ar
    36     9    11    1
    37     9    12    1
@<TRIPOS>MOLECULE
*****
 33 37 0 0 0
SMALL
GASTEIGER

@<TRIPOS>ATOM
      1 C         139.3547  143.3301  160.8375 C.ar    1  UNL1        0.1065
      2 N         138.2950  142.6083  160.0591 N.ar    1  UNL1       -0.1679
      3 N         138.4982  142.9147  158.6049 N.ar    1  UNL1       -0.2340
      4 C         139.6836  143.8260  158.4845 C.ar    1  UNL1        0.1653
      5 N         140.3494  144.4552  157.2967 N.ar    1  UNL1       -0.2050
      6 C         141.5446  145.3411  157.4888 C.ar    1  UNL1        0.2014
      7 N         142.0739  145.5978  158.8686 N.ar    1  UNL1       -0.2093
      8 C         141.4081  144.9686  160.0564 C.ar    1  UNL1        0.1316
      9 N         141.9374  145.2253  161.4362 N.pl3   1  UNL1       -0.3425
     10 C         140.2130  144.0827  159.8643 C.ar    1  UNL1        0.0860
     11 H         142.7218  145.8068  161.5623 H       1  UNL1        0.1437
     12 H         141.5004  144.8124  162.2158 H       1  UNL1        0.1437
     13 C         140.8462  142.1361  167.4405 C.ar    1  UNL1        0.1386
     14 C         141.4806  141.0729  166.5938 C.ar    1  UNL1        0.0369
     15 C         141.3092  141.0990  165.1039 C.ar    1  UNL1        0.0031
     16 C         140.5034  142.1884  164.4606 C.ar    1  UNL1        0.0002
     17 C         140.3320  142.2146  162.9707 C.ar    1  UNL1        0.0016
     18 C         139.5261  143.3040  162.3275 C.ar    1  UNL1        0.0195
     19 C         138.8916  144.3673  163.1742 C.ar    1  UNL1        0.0016
     20 C         139.0631  144.3411  164.6641 C.ar    1  UNL1        0.0001
     21 C         139.8690  143.2517  165.3074 C.ar    1  UNL1        0.0030
     22 C         140.0404  143.2255  166.7973 C.ar    1  UNL1        0.0369
     23 O         141.0176  142.1100  168.9305 O.3     1  UNL1       -0.4755
     24 C         143.5543  142.2740  169.4675 C.3     1  UNL1        0.0512
     25 C         142.1667  142.8350  169.5661 C.3     1  UNL1        0.2055
     26 C         137.6629  142.4003  157.4703 C.3     1  UNL1        0.1291
     27 C         137.9905  141.0813  156.8356 C.3     1  UNL1        0.0272
     28 C         137.2570  140.6385  155.6044 C.3     1  UNL1        0.0194
     29 C         137.5846  139.3194  154.9698 C.3     1  UNL1        0.0722
     30 N         138.6458  138.4431  155.5664 N.3     1  UNL1       -0.2715
     31 C         138.9735  137.1241  154.9317 C.3     1  UNL1        0.0896
     32 C         139.3794  138.8859  156.7976 C.3     1  UNL1        0.0722
     33 C         139.0517  140.2049  157.4322 C.3     1  UNL1        0.0194
@<TRIPOS>BOND
     1    24    25    1
     2    25    23    1
     3    23    13    1
     4    13    14   ar
     5    14    15   ar
     6    15    16   ar
     7    16    17   ar
     8    17    18   ar
     9    18     1    1
    10     1     2   ar
    11     2     3   ar
    12     3    26    1
    13    26    27    1
    14    27    28    1
    15    28    29    1
    16    29    30    1
    17    30    31    1
    18    30    32    1
    19    32    33    1
    20     3     4   ar
    21     4     5   ar
    22     5     6   ar
    23     6     7   ar
    24     7     8   ar
    25     8     9    1
    26     8    10   ar
    27    18    19   ar
    28    19    20   ar
    29    20    21   ar
    30    21    22   ar
    31    22    13   ar
    32    21    16   ar
    33    10     1   ar
    34    33    27    1
    35    10     4   ar
    36     9    11    1
    37     9    12    1
@<TRIPOS>MOLECULE
*****
 33 37 0 0 0
SMALL
GASTEIGER

@<TRIPOS>ATOM
      1 C         141.7613  138.3013  160.5078 C.ar    1  UNL1        0.1065
      2 N         142.7724  137.5705  159.6750 N.ar    1  UNL1       -0.1679
      3 N         142.3040  137.5946  158.2502 N.ar    1  UNL1       -0.2340
      4 C         141.0034  138.3404  158.2024 C.ar    1  UNL1        0.1653
      5 N         140.0811  138.6781  157.0687 N.ar    1  UNL1       -0.2050
      6 C         138.8234  139.4527  157.3302 C.ar    1  UNL1        0.2014
      7 N         138.4880  139.8895  158.7255 N.ar    1  UNL1       -0.2093
      8 C         139.4102  139.5517  159.8592 C.ar    1  UNL1        0.1316
      9 N         139.0749  139.9885  161.2545 N.pl3   1  UNL1       -0.3425
     10 C         140.6679  138.7772  159.5977 C.ar    1  UNL1        0.0860
     11 H         138.2494  140.4968  161.4262 H       1  UNL1        0.1437
     12 H         139.6802  139.7667  161.9986 H       1  UNL1        0.1437
     13 C         142.6235  140.4391  166.9837 C.ar    1  UNL1        0.1386
     14 C         143.1361  141.4922  166.0466 C.ar    1  UNL1        0.0369
     15 C         143.0662  141.2753  164.5640 C.ar    1  UNL1        0.0031
     16 C         142.4836  140.0052  164.0185 C.ar    1  UNL1        0.0002
     17 C         142.4137  139.7883  162.5359 C.ar    1  UNL1        0.0016
     18 C         141.8312  138.5183  161.9904 C.ar    1  UNL1        0.0195
     19 C         141.3185  137.4651  162.9275 C.ar    1  UNL1        0.0016
     20 C         141.3884  137.6820  164.4101 C.ar    1  UNL1        0.0001
     21 C         141.9710  138.9521  164.9556 C.ar    1  UNL1        0.0030
     22 C         142.0409  139.1691  166.4382 C.ar    1  UNL1        0.0369
     23 O         142.6934  140.6560  168.4663 O.3     1  UNL1       -0.4755
     24 C         142.7297  138.5830  170.0318 C.3     1  UNL1        0.0512
     25 C         141.9826  139.7177  169.3959 C.3     1  UNL1        0.2055
     26 C         143.0118  136.9808  157.0789 C.3     1  UNL1        0.1291
     27 C         142.6986  135.5729  156.6670 C.3     1  UNL1        0.0272
     28 C         141.7012  135.3147  155.5768 C.3     1  UNL1        0.0194
     29 C         141.3879  133.9068  155.1649 C.3     1  UNL1        0.0722
     30 N         142.0720  132.7570  155.8432 N.3     1  UNL1       -0.2715
     31 C         141.7587  131.3491  155.4313 C.3     1  UNL1        0.0896
     32 C         143.0694  133.0153  156.9334 C.3     1  UNL1        0.0722
     33 C         143.3827  134.4232  157.3453 C.3     1  UNL1        0.0194
@<TRIPOS>BOND
     1    24    25    1
     2    25    23    1
     3    23    13    1
     4    13    14   ar
     5    14    15   ar
     6    15    16   ar
     7    16    17   ar
     8    17    18   ar
     9    18     1    1
    10     1     2   ar
    11     2     3   ar
    12     3    26    1
    13    26    27    1
    14    27    28    1
    15    28    29    1
    16    29    30    1
    17    30    31    1
    18    30    32    1
    19    32    33    1
    20     3     4   ar
    21     4     5   ar
    22     5     6   ar
    23     6     7   ar
    24     7     8   ar
    25     8     9    1
    26     8    10   ar
    27    18    19   ar
    28    19    20   ar
    29    20    21   ar
    30    21    22   ar
    31    22    13   ar
    32    21    16   ar
    33    10     1   ar
    34    33    27    1
    35    10     4   ar
    36     9    11    1
    37     9    12    1
@<TRIPOS>MOLECULE
*****
 33 37 0 0 0
SMALL
GASTEIGER

@<TRIPOS>ATOM
      1 C         143.4648  142.8848  161.9867 C.ar    1  UNL1        0.1065
      2 N         144.4444  142.2381  161.0529 N.ar    1  UNL1       -0.1679
      3 N         144.1404  142.7106  159.6621 N.ar    1  UNL1       -0.2340
      4 C         142.9727  143.6492  159.7363 C.ar    1  UNL1        0.1653
      5 N         142.2358  144.4199  158.6813 N.ar    1  UNL1       -0.2050
      6 C         141.0812  145.2982  159.0631 C.ar    1  UNL1        0.2014
      7 N         140.6637  145.4059  160.4998 N.ar    1  UNL1       -0.2093
      8 C         141.4006  144.6352  161.5547 C.ar    1  UNL1        0.1316
      9 N         140.9831  144.7429  162.9914 N.pl3   1  UNL1       -0.3425
     10 C         142.5551  143.7570  161.1730 C.ar    1  UNL1        0.0860
     11 H         140.2254  145.3194  163.2420 H       1  UNL1        0.1437
     12 H         141.4668  144.2371  163.6838 H       1  UNL1        0.1437
     13 C         142.3829  141.0220  168.5143 C.ar    1  UNL1        0.1386
     14 C         141.5992  140.1182  167.6094 C.ar    1  UNL1        0.0369
     15 C         141.6588  140.3099  166.1229 C.ar    1  UNL1        0.0031
     16 C         142.5021  141.4056  165.5413 C.ar    1  UNL1        0.0002
     17 C         142.5618  141.5974  164.0548 C.ar    1  UNL1        0.0016
     18 C         143.4051  142.6930  163.4732 C.ar    1  UNL1        0.0195
     19 C         144.1888  143.5969  164.3781 C.ar    1  UNL1        0.0016
     20 C         144.1292  143.4052  165.8646 C.ar    1  UNL1        0.0001
     21 C         143.2858  142.3094  166.4462 C.ar    1  UNL1        0.0030
     22 C         143.2262  142.1177  167.9327 C.ar    1  UNL1        0.0369
     23 O         142.3232  140.8303  170.0008 O.3     1  UNL1       -0.4755
     24 C         140.2686  142.4156  170.1238 C.3     1  UNL1        0.0512
     25 C         141.2815  141.5463  170.8082 C.3     1  UNL1        0.2055
     26 C         144.8749  142.3140  158.4158 C.3     1  UNL1        0.1291
     27 C         144.5084  141.0477  157.7002 C.3     1  UNL1        0.0272
     28 C         145.2283  140.6620  156.4420 C.3     1  UNL1        0.0194
     29 C         144.8619  139.3957  155.7263 C.3     1  UNL1        0.0722
     30 N         143.7756  138.5150  156.2688 N.3     1  UNL1       -0.2715
     31 C         143.4092  137.2487  155.5532 C.3     1  UNL1        0.0896
     32 C         143.0557  138.9007  157.5270 C.3     1  UNL1        0.0722
     33 C         143.4221  140.1670  158.2427 C.3     1  UNL1        0.0194
@<TRIPOS>BOND
     1    24    25    1
     2    25    23    1
     3    23    13    1
     4    13    14   ar
     5    14    15   ar
     6    15    16   ar
     7    16    17   ar
     8    17    18   ar
     9    18     1    1
    10     1     2   ar
    11     2     3   ar
    12     3    26    1
    13    26    27    1
    14    27    28    1
    15    28    29    1
    16    29    30    1
    17    30    31    1
    18    30    32    1
    19    32    33    1
    20     3     4   ar
    21     4     5   ar
    22     5     6   ar
    23     6     7   ar
    24     7     8   ar
    25     8     9    1
    26     8    10   ar
    27    18    19   ar
    28    19    20   ar
    29    20    21   ar
    30    21    22   ar
    31    22    13   ar
    32    21    16   ar
    33    10     1   ar
    34    33    27    1
    35    10     4   ar
    36     9    11    1
    37     9    12    1
@<TRIPOS>MOLECULE
*****
 33 37 0 0 0
SMALL
GASTEIGER

@<TRIPOS>ATOM
      1 C         143.3789  142.2131  161.2012 C.ar    1  UNL1        0.1065
      2 N         143.9629  141.1107  160.3683 N.ar    1  UNL1       -0.1679
      3 N         143.7546  141.4603  158.9246 N.ar    1  UNL1       -0.2340
      4 C         143.0418  142.7787  158.8651 C.ar    1  UNL1        0.1653
      5 N         142.5742  143.6158  157.7116 N.ar    1  UNL1       -0.2050
      6 C         141.8743  144.9182  157.9651 C.ar    1  UNL1        0.2014
      7 N         141.6422  145.3834  159.3721 N.ar    1  UNL1       -0.2093
      8 C         142.1098  144.5464  160.5256 C.ar    1  UNL1        0.1316
      9 N         141.8776  145.0116  161.9326 N.pl3   1  UNL1       -0.3425
     10 C         142.8096  143.2441  160.2721 C.ar    1  UNL1        0.0860
     11 H         141.4183  145.8664  162.0990 H       1  UNL1        0.1437
     12 H         142.1846  144.4622  162.6897 H       1  UNL1        0.1437
     13 C         142.1403  141.9487  167.9573 C.ar    1  UNL1        0.1386
     14 C         140.9643  141.3803  167.2199 C.ar    1  UNL1        0.0369
     15 C         140.9768  141.3195  165.7212 C.ar    1  UNL1        0.0031
     16 C         142.1653  141.8271  164.9599 C.ar    1  UNL1        0.0002
     17 C         142.1779  141.7663  163.4612 C.ar    1  UNL1        0.0016
     18 C         143.3664  142.2739  162.6999 C.ar    1  UNL1        0.0195
     19 C         144.5426  142.8423  163.4373 C.ar    1  UNL1        0.0016
     20 C         144.5300  142.9031  164.9360 C.ar    1  UNL1        0.0001
     21 C         143.3414  142.3955  165.6973 C.ar    1  UNL1        0.0030
     22 C         143.3289  142.4563  167.1960 C.ar    1  UNL1        0.0369
     23 O         142.1278  142.0095  169.4561 O.3     1  UNL1       -0.4755
     24 C         140.4245  143.9242  169.8838 C.3     1  UNL1        0.0512
     25 C         140.9229  142.5397  170.1751 C.3     1  UNL1        0.2055
     26 C         144.1837  140.6362  157.7470 C.3     1  UNL1        0.1291
     27 C         145.2713  141.1321  156.8410 C.3     1  UNL1        0.0272
     28 C         146.1469  142.2706  157.2736 C.3     1  UNL1        0.0194
     29 C         147.2346  142.7666  156.3675 C.3     1  UNL1        0.0722
     30 N         147.4467  142.1241  155.0288 N.3     1  UNL1       -0.2715
     31 C         148.5344  142.6200  154.1227 C.3     1  UNL1        0.0896
     32 C         146.5711  140.9856  154.5962 C.3     1  UNL1        0.0722
     33 C         145.4834  140.4896  155.5022 C.3     1  UNL1        0.0194
@<TRIPOS>BOND
     1    24    25    1
     2    25    23    1
     3    23    13    1
     4    13    14   ar
     5    14    15   ar
     6    15    16   ar
     7    16    17   ar
     8    17    18   ar
     9    18     1    1
    10     1     2   ar
    11     2     3   ar
    12     3    26    1
    13    26    27    1
    14    27    28    1
    15    28    29    1
    16    29    30    1
    17    30    31    1
    18    30    32    1
    19    32    33    1
    20     3     4   ar
    21     4     5   ar
    22     5     6   ar
    23     6     7   ar
    24     7     8   ar
    25     8     9    1
    26     8    10   ar
    27    18    19   ar
    28    19    20   ar
    29    20    21   ar
    30    21    22   ar
    31    22    13   ar
    32    21    16   ar
    33    10     1   ar
    34    33    27    1
    35    10     4   ar
    36     9    11    1
    37     9    12    1
@<TRIPOS>MOLECULE
*****
 33 37 0 0 0
SMALL
GASTEIGER

@<TRIPOS>ATOM
      1 C         141.8201  141.9513  162.1545 C.ar    1  UNL1        0.1065
      2 N         140.8832  141.0366  162.8861 N.ar    1  UNL1       -0.1679
      3 N         141.6925  140.2133  163.8438 N.ar    1  UNL1       -0.2340
      4 C         143.1298  140.6192  163.7040 C.ar    1  UNL1        0.1653
      5 N         144.3769  140.1495  164.3925 N.ar    1  UNL1       -0.2050
      6 C         145.7030  140.7539  164.0369 C.ar    1  UNL1        0.2014
      7 N         145.7818  141.8281  162.9928 N.ar    1  UNL1       -0.2093
      8 C         144.5347  142.2978  162.3044 C.ar    1  UNL1        0.1316
      9 N         144.6135  143.3719  161.2603 N.pl3   1  UNL1       -0.3425
     10 C         143.2087  141.6934  162.6599 C.ar    1  UNL1        0.0860
     11 H         145.4838  143.7686  161.0270 H       1  UNL1        0.1437
     12 H         143.7950  143.6802  160.8085 H       1  UNL1        0.1437
     13 C         140.2575  145.5359  156.5013 C.ar    1  UNL1        0.1386
     14 C         140.6153  144.1328  156.1097 C.ar    1  UNL1        0.0369
     15 C         140.9993  143.1353  157.1621 C.ar    1  UNL1        0.0031
     16 C         141.0257  143.5409  158.6059 C.ar    1  UNL1        0.0002
     17 C         141.4097  142.5433  159.6583 C.ar    1  UNL1        0.0016
     18 C         141.4361  142.9489  161.1021 C.ar    1  UNL1        0.0195
     19 C         141.0783  144.3520  161.4937 C.ar    1  UNL1        0.0016
     20 C         140.6943  145.3495  160.4414 C.ar    1  UNL1        0.0001
     21 C         140.6679  144.9439  158.9975 C.ar    1  UNL1        0.0030
     22 C         140.2839  145.9415  157.9451 C.ar    1  UNL1        0.0369
     23 O         139.8735  146.5335  155.4489 O.3     1  UNL1       -0.4755
     24 C         139.1397  148.9934  155.0484 C.3     1  UNL1        0.0512
     25 C         139.0088  147.7058  155.8067 C.3     1  UNL1        0.2055
     26 C         141.1585  139.1677  164.7773 C.3     1  UNL1        0.1291
     27 C         141.0241  139.4673  166.2409 C.3     1  UNL1        0.0272
     28 C         142.2370  139.4559  167.1234 C.3     1  UNL1        0.0194
     29 C         142.1026  139.7554  168.5870 C.3     1  UNL1        0.0722
     30 N         140.7552  140.0665  169.1682 N.3     1  UNL1       -0.2715
     31 C         140.6207  140.3660  170.6318 C.3     1  UNL1        0.0896
     32 C         139.5423  140.0779  168.2858 C.3     1  UNL1        0.0722
     33 C         139.6767  139.7783  166.8221 C.3     1  UNL1        0.0194
@<TRIPOS>BOND
     1    24    25    1
     2    25    23    1
     3    23    13    1
     4    13    14   ar
     5    14    15   ar
     6    15    16   ar
     7    16    17   ar
     8    17    18   ar
     9    18     1    1
    10     1     2   ar
    11     2     3   ar
    12     3    26    1
    13    26    27    1
    14    27    28    1
    15    28    29    1
    16    29    30    1
    17    30    31    1
    18    30    32    1
    19    32    33    1
    20     3     4   ar
    21     4     5   ar
    22     5     6   ar
    23     6     7   ar
    24     7     8   ar
    25     8     9    1
    26     8    10   ar
    27    18    19   ar
    28    19    20   ar
    29    20    21   ar
    30    21    22   ar
    31    22    13   ar
    32    21    16   ar
    33    10     1   ar
    34    33    27    1
    35    10     4   ar
    36     9    11    1
    37     9    12    1
@<TRIPOS>MOLECULE
*****
 33 37 0 0 0
SMALL
GASTEIGER

@<TRIPOS>ATOM
      1 C         140.6914  140.2959  161.2719 C.ar    1  UNL1        0.1065
      2 N         140.0506  141.2584  160.3164 N.ar    1  UNL1       -0.1679
      3 N         140.4075  140.8345  158.9225 N.ar    1  UNL1       -0.2340
      4 C         141.2688  139.6101  159.0165 C.ar    1  UNL1        0.1653
      5 N         141.9160  138.7552  157.9676 N.ar    1  UNL1       -0.2050
      6 C         142.7387  137.5674  158.3707 C.ar    1  UNL1        0.2014
      7 N         142.9141  137.2345  159.8227 N.ar    1  UNL1       -0.2093
      8 C         142.2669  138.0894  160.8717 C.ar    1  UNL1        0.1316
      9 N         142.4423  137.7565  162.3237 N.pl3   1  UNL1       -0.3425
     10 C         141.4443  139.2771  160.4686 C.ar    1  UNL1        0.0860
     11 H         142.9823  136.9769  162.5883 H       1  UNL1        0.1437
     12 H         142.0175  138.3176  163.0122 H       1  UNL1        0.1437
     13 C         139.1895  139.7798  167.9598 C.ar    1  UNL1        0.1386
     14 C         138.1645  139.0246  167.1667 C.ar    1  UNL1        0.0369
     15 C         138.2599  138.9768  165.6705 C.ar    1  UNL1        0.0031
     16 C         139.3802  139.6842  164.9674 C.ar    1  UNL1        0.0002
     17 C         139.4756  139.6363  163.4712 C.ar    1  UNL1        0.0016
     18 C         140.5960  140.3437  162.7681 C.ar    1  UNL1        0.0195
     19 C         141.6210  141.0990  163.5612 C.ar    1  UNL1        0.0016
     20 C         141.5256  141.1468  165.0574 C.ar    1  UNL1        0.0001
     21 C         140.4052  140.4394  165.7605 C.ar    1  UNL1        0.0030
     22 C         140.3098  140.4872  167.2567 C.ar    1  UNL1        0.0369
     23 O         139.0941  139.8276  169.4560 O.3     1  UNL1       -0.4755
     24 C         139.7157  142.1798  170.3675 C.3     1  UNL1        0.0512
     25 C         140.0156  140.7158  170.2383 C.3     1  UNL1        0.2055
     26 C         139.9784  141.5155  157.6568 C.3     1  UNL1        0.1291
     27 C         138.7880  141.0078  156.8984 C.3     1  UNL1        0.0272
     28 C         138.9699  139.9936  155.8083 C.3     1  UNL1        0.0194
     29 C         137.7794  139.4859  155.0500 C.3     1  UNL1        0.0722
     30 N         136.4071  139.9924  155.3817 N.3     1  UNL1       -0.2715
     31 C         135.2166  139.4846  154.6233 C.3     1  UNL1        0.0896
     32 C         136.2252  141.0066  156.4717 C.3     1  UNL1        0.0722
     33 C         137.4156  141.5143  157.2301 C.3     1  UNL1        0.0194
@<TRIPOS>BOND
     1    24    25    1
     2    25    23    1
     3    23    13    1
     4    13    14   ar
     5    14    15   ar
     6    15    16   ar
     7    16    17   ar
     8    17    18   ar
     9    18     1    1
    10     1     2   ar
    11     2     3   ar
    12     3    26    1
    13    26    27    1
    14    27    28    1
    15    28    29    1
    16    29    30    1
    17    30    31    1
    18    30    32    1
    19    32    33    1
    20     3     4   ar
    21     4     5   ar
    22     5     6   ar
    23     6     7   ar
    24     7     8   ar
    25     8     9    1
    26     8    10   ar
    27    18    19   ar
    28    19    20   ar
    29    20    21   ar
    30    21    22   ar
    31    22    13   ar
    32    21    16   ar
    33    10     1   ar
    34    33    27    1
    35    10     4   ar
    36     9    11    1
    37     9    12    1
@<TRIPOS>MOLECULE
*****
 33 37 0 0 0
SMALL
GASTEIGER

@<TRIPOS>ATOM
      1 C         139.6076  139.6405  162.2126 C.ar    1  UNL1        0.1065
      2 N         138.6003  140.1758  161.2386 N.ar    1  UNL1       -0.1679
      3 N         139.0848  139.8660  159.8532 N.ar    1  UNL1       -0.2340
      4 C         140.3916  139.1391  159.9710 C.ar    1  UNL1        0.1653
      5 N         141.3292  138.5861  158.9389 N.ar    1  UNL1       -0.2050
      6 C         142.5899  137.8938  159.3650 C.ar    1  UNL1        0.2014
      7 N         142.9129  137.7544  160.8232 N.ar    1  UNL1       -0.2093
      8 C         141.9754  138.3074  161.8553 C.ar    1  UNL1        0.1316
      9 N         142.2985  138.1681  163.3134 N.pl3   1  UNL1       -0.3425
     10 C         140.7148  138.9997  161.4292 C.ar    1  UNL1        0.0860
     11 H         143.1259  137.7137  163.5931 H       1  UNL1        0.1437
     12 H         141.6831  138.5310  163.9908 H       1  UNL1        0.1437
     13 C         139.8526  141.1810  168.9071 C.ar    1  UNL1        0.1386
     14 C         140.5222  142.2733  168.1271 C.ar    1  UNL1        0.0369
     15 C         140.6071  142.1837  166.6322 C.ar    1  UNL1        0.0031
     16 C         140.0224  141.0017  165.9173 C.ar    1  UNL1        0.0002
     17 C         140.1073  140.9121  164.4224 C.ar    1  UNL1        0.0016
     18 C         139.5227  139.7301  163.7075 C.ar    1  UNL1        0.0195
     19 C         138.8531  138.6377  164.4875 C.ar    1  UNL1        0.0016
     20 C         138.7682  138.7274  165.9824 C.ar    1  UNL1        0.0001
     21 C         139.3529  139.9094  166.6973 C.ar    1  UNL1        0.0030
     22 C         139.2680  139.9991  168.1922 C.ar    1  UNL1        0.0369
     23 O         139.7677  141.2707  170.4020 O.3     1  UNL1       -0.4755
     24 C         142.2334  140.5328  170.7566 C.3     1  UNL1        0.0512
     25 C         140.8210  140.6256  171.2531 C.3     1  UNL1        0.2055
     26 C         138.3854  140.2206  158.5746 C.3     1  UNL1        0.1291
     27 C         138.6286  141.5539  157.9316 C.3     1  UNL1        0.0272
     28 C         139.7278  142.4408  158.4367 C.3     1  UNL1        0.0194
     29 C         139.9710  143.7740  157.7937 C.3     1  UNL1        0.0722
     30 N         139.1150  144.2203  156.6457 N.3     1  UNL1       -0.2715
     31 C         139.3582  145.5536  156.0027 C.3     1  UNL1        0.0896
     32 C         138.0158  143.3334  156.1406 C.3     1  UNL1        0.0722
     33 C         137.7726  142.0002  156.7836 C.3     1  UNL1        0.0194
@<TRIPOS>BOND
     1    24    25    1
     2    25    23    1
     3    23    13    1
     4    13    14   ar
     5    14    15   ar
     6    15    16   ar
     7    16    17   ar
     8    17    18   ar
     9    18     1    1
    10     1     2   ar
    11     2     3   ar
    12     3    26    1
    13    26    27    1
    14    27    28    1
    15    28    29    1
    16    29    30    1
    17    30    31    1
    18    30    32    1
    19    32    33    1
    20     3     4   ar
    21     4     5   ar
    22     5     6   ar
    23     6     7   ar
    24     7     8   ar
    25     8     9    1
    26     8    10   ar
    27    18    19   ar
    28    19    20   ar
    29    20    21   ar
    30    21    22   ar
    31    22    13   ar
    32    21    16   ar
    33    10     1   ar
    34    33    27    1
    35    10     4   ar
    36     9    11    1
    37     9    12    1
