@<TRIPOS>MOLECULE
*****
 27 31 0 0 0
SMALL
GASTEIGER

@<TRIPOS>ATOM
      1 C         145.4781  142.1379  163.8570 C.3     1  UNL1        0.1123
      2 N         144.2478  142.8031  163.3149 N.am    1  UNL1       -0.2606
      3 C         144.1599  143.5904  162.0411 C.3     1  UNL1        0.1169
      4 C         142.7471  144.0716  161.8904 C.3     1  UNL1        0.1212
      5 N         141.9621  143.5817  163.0709 N.am    1  UNL1       -0.2413
      6 C         142.8896  142.7977  163.9513 C.2     1  UNL1        0.3111
      7 O         142.5231  142.1263  165.2416 O.2     1  UNL1       -0.2520
      8 C         140.5054  143.8319  163.3262 C.ar    1  UNL1        0.0562
      9 C         139.4866  143.4512  162.2931 C.ar    1  UNL1        0.0150
     10 C         138.0298  143.7014  162.5483 C.ar    1  UNL1        0.0021
     11 C         137.5917  144.3323  163.8367 C.ar    1  UNL1        0.0115
     12 C         138.6104  144.7130  164.8699 C.ar    1  UNL1        0.0589
     13 CL        138.1722  145.3439  166.1583 Cl      1  UNL1       -0.0822
     14 C         140.0672  144.4628  164.6147 C.ar    1  UNL1        0.0263
     15 C         145.5502  140.6415  163.9326 C.3     1  UNL1        0.0939
     16 C         143.5237  138.9783  165.6089 C.3     1  UNL1        0.0000
     17 C         142.8336  138.4433  164.3893 C.3     1  UNL1        0.0013
     18 C         144.0005  139.3849  164.3478 C.3     1  UNL1        0.0000
     19 C         141.8046  137.6015  165.0838 C.3     1  UNL1        0.0014
     20 C         140.9615  136.9401  164.0342 C.3     1  UNL1        0.0001
     21 C         141.4694  137.3731  162.6909 C.3     1  UNL1        0.0013
     22 C         142.6265  138.3022  162.9104 C.3     1  UNL1        0.0148
     23 C         143.1344  138.7352  161.5671 C.3     1  UNL1        0.0186
     24 C         144.2915  139.6642  161.7864 C.3     1  UNL1        0.0721
     25 N         144.4986  139.8054  163.2654 N.3     1  UNL1       -0.2725
     26 C         143.4696  138.9636  163.9600 C.3     1  UNL1        0.0575
     27 C         142.9617  138.5306  165.3033 C.3     1  UNL1        0.0160
@<TRIPOS>BOND
     1    16    17    1
     2    17    18    1
     3    17    19    1
     4    19    20    1
     5    20    21    1
     6    22    21    1
     7    22    23    1
     8    23    24    1
     9    24    25    1
    10    25    15    1
    11    15     1    1
    12     1     2    1
    13     2     3    1
    14     3     4    1
    15     4     5    1
    16     5     8    1
    17     8     9   ar
    18     9    10   ar
    19    10    11   ar
    20    11    12   ar
    21    12    13    1
    22    12    14   ar
    23     5     6   am
    24     6     7    2
    25    25    26    1
    26    26    27    1
    27    22    17    1
    28     6     2   am
    29    27    19    1
    30    26    22    1
    31    14     8   ar
@<TRIPOS>MOLECULE
*****
 27 31 0 0 0
SMALL
GASTEIGER

@<TRIPOS>ATOM
      1 C         139.9732  145.1973  163.2723 C.3     1  UNL1        0.1123
      2 N         139.3797  143.8257  163.1436 N.am    1  UNL1       -0.2606
      3 C         138.4174  143.3774  162.0839 C.3     1  UNL1        0.1169
      4 C         138.0874  141.9362  162.3375 C.3     1  UNL1        0.1212
      5 N         138.8457  141.4940  163.5538 N.am    1  UNL1       -0.2413
      6 C         139.6444  142.6619  164.0520 C.2     1  UNL1        0.3111
      7 O         140.5490  142.6651  165.2485 O.2     1  UNL1       -0.2520
      8 C         138.8113  140.1245  164.1645 C.ar    1  UNL1        0.0562
      9 C         139.4524  138.9698  163.4535 C.ar    1  UNL1        0.0150
     10 C         139.4180  137.6002  164.0642 C.ar    1  UNL1        0.0021
     11 C         138.7425  137.3853  165.3861 C.ar    1  UNL1        0.0115
     12 C         138.1013  138.5399  166.0972 C.ar    1  UNL1        0.0589
     13 CL        137.4257  138.3250  167.4191 Cl      1  UNL1       -0.0822
     14 C         138.1356  139.9095  165.4865 C.ar    1  UNL1        0.0263
     15 C         141.3169  145.4922  162.6743 C.3     1  UNL1        0.0939
     16 C         143.5510  144.3918  164.5401 C.3     1  UNL1        0.0000
     17 C         143.9964  143.3710  163.5354 C.3     1  UNL1        0.0013
     18 C         142.8727  144.3380  163.3072 C.3     1  UNL1        0.0000
     19 C         145.1032  142.7557  164.3393 C.3     1  UNL1        0.0014
     20 C         145.7250  141.6675  163.5152 C.3     1  UNL1        0.0001
     21 C         145.0025  141.6102  162.2020 C.3     1  UNL1        0.0013
     22 C         143.9341  142.6630  162.2144 C.3     1  UNL1        0.0148
     23 C         143.2116  142.6057  160.9012 C.3     1  UNL1        0.0186
     24 C         142.1432  143.6586  160.9135 C.3     1  UNL1        0.0721
     25 N         142.2055  144.3666  162.2346 N.3     1  UNL1       -0.2725
     26 C         143.3123  143.7513  163.0385 C.3     1  UNL1        0.0575
     27 C         144.0349  143.8086  164.3517 C.3     1  UNL1        0.0160
@<TRIPOS>BOND
     1    16    17    1
     2    17    18    1
     3    17    19    1
     4    19    20    1
     5    20    21    1
     6    22    21    1
     7    22    23    1
     8    23    24    1
     9    24    25    1
    10    25    15    1
    11    15     1    1
    12     1     2    1
    13     2     3    1
    14     3     4    1
    15     4     5    1
    16     5     8    1
    17     8     9   ar
    18     9    10   ar
    19    10    11   ar
    20    11    12   ar
    21    12    13    1
    22    12    14   ar
    23     5     6   am
    24     6     7    2
    25    25    26    1
    26    26    27    1
    27    22    17    1
    28     6     2   am
    29    27    19    1
    30    26    22    1
    31    14     8   ar
@<TRIPOS>MOLECULE
*****
 27 31 0 0 0
SMALL
GASTEIGER

@<TRIPOS>ATOM
      1 C         145.4953  140.9101  164.0276 C.3     1  UNL1        0.1123
      2 N         144.2213  140.1285  164.1543 N.am    1  UNL1       -0.2606
      3 C         143.8214  138.9522  163.3138 C.3     1  UNL1        0.1169
      4 C         142.4765  138.4828  163.7837 C.3     1  UNL1        0.1212
      5 N         142.0452  139.3690  164.9145 N.am    1  UNL1       -0.2413
      6 C         143.1236  140.3861  165.1435 C.2     1  UNL1        0.3111
      7 O         143.1072  141.4705  166.1798 O.2     1  UNL1       -0.2520
      8 C         140.7611  139.2576  165.6816 C.ar    1  UNL1        0.0562
      9 C         139.5924  138.5299  165.0860 C.ar    1  UNL1        0.0150
     10 C         138.3082  138.4184  165.8531 C.ar    1  UNL1        0.0021
     11 C         138.1926  139.0347  167.2157 C.ar    1  UNL1        0.0115
     12 C         139.3612  139.7624  167.8113 C.ar    1  UNL1        0.0589
     13 CL        139.2456  140.3786  169.1740 Cl      1  UNL1       -0.0822
     14 C         140.6454  139.8738  167.0443 C.ar    1  UNL1        0.0263
     15 C         145.5889  142.0374  163.0425 C.3     1  UNL1        0.0939
     16 C         143.9099  144.3357  164.3004 C.3     1  UNL1        0.0000
     17 C         142.9106  144.3239  163.1819 C.3     1  UNL1        0.0013
     18 C         144.0980  143.4104  163.2556 C.3     1  UNL1        0.0000
     19 C         142.0207  145.4214  163.6853 C.3     1  UNL1        0.0014
     20 C         140.9049  145.6025  162.6993 C.3     1  UNL1        0.0001
     21 C         141.1052  144.6169  161.5864 C.3     1  UNL1        0.0013
     22 C         142.3448  143.8267  161.8847 C.3     1  UNL1        0.0148
     23 C         142.5452  142.8411  160.7719 C.3     1  UNL1        0.0186
     24 C         143.7848  142.0508  161.0700 C.3     1  UNL1        0.0721
     25 N         144.3506  142.5481  162.3673 N.3     1  UNL1       -0.2725
     26 C         143.4606  143.6456  162.8707 C.3     1  UNL1        0.0575
     27 C         143.2603  144.6312  163.9836 C.3     1  UNL1        0.0160
@<TRIPOS>BOND
     1    16    17    1
     2    17    18    1
     3    17    19    1
     4    19    20    1
     5    20    21    1
     6    22    21    1
     7    22    23    1
     8    23    24    1
     9    24    25    1
    10    25    15    1
    11    15     1    1
    12     1     2    1
    13     2     3    1
    14     3     4    1
    15     4     5    1
    16     5     8    1
    17     8     9   ar
    18     9    10   ar
    19    10    11   ar
    20    11    12   ar
    21    12    13    1
    22    12    14   ar
    23     5     6   am
    24     6     7    2
    25    25    26    1
    26    26    27    1
    27    22    17    1
    28     6     2   am
    29    27    19    1
    30    26    22    1
    31    14     8   ar
@<TRIPOS>MOLECULE
*****
 27 31 0 0 0
SMALL
GASTEIGER

@<TRIPOS>ATOM
      1 C         144.4933  139.5384  163.7670 C.3     1  UNL1        0.1123
      2 N         144.2015  140.9852  163.4996 N.am    1  UNL1       -0.2606
      3 C         145.1362  142.1328  163.7435 C.3     1  UNL1        0.1169
      4 C         144.4361  143.3953  163.3361 C.3     1  UNL1        0.1212
      5 N         143.0688  143.0280  162.8406 N.am    1  UNL1       -0.2413
      6 C         142.9238  141.5384  162.9417 C.2     1  UNL1        0.3111
      7 O         141.7136  140.7420  162.5530 O.2     1  UNL1       -0.2520
      8 C         142.0291  143.9826  162.3331 C.ar    1  UNL1        0.0562
      9 C         141.1154  144.6788  163.2977 C.ar    1  UNL1        0.0150
     10 C         140.0756  145.6335  162.7903 C.ar    1  UNL1        0.0021
     11 C         139.9496  145.8920  161.3181 C.ar    1  UNL1        0.0115
     12 C         140.8632  145.1959  160.3534 C.ar    1  UNL1        0.0589
     13 CL        140.7371  145.4544  158.8813 Cl      1  UNL1       -0.0822
     14 C         141.9030  144.2412  160.8608 C.ar    1  UNL1        0.0263
     15 C         144.0506  138.9095  165.0548 C.3     1  UNL1        0.0939
     16 C         141.3644  137.4720  164.4213 C.3     1  UNL1        0.0000
     17 C         140.5812  138.3604  165.3417 C.3     1  UNL1        0.0013
     18 C         142.0601  138.4772  165.1203 C.3     1  UNL1        0.0000
     19 C         139.2287  137.7510  165.1194 C.3     1  UNL1        0.0014
     20 C         138.2393  138.4975  165.9643 C.3     1  UNL1        0.0001
     21 C         138.9804  139.5683  166.7089 C.3     1  UNL1        0.0013
     22 C         140.4277  139.4835  166.3240 C.3     1  UNL1        0.0148
     23 C         141.1687  140.5543  167.0686 C.3     1  UNL1        0.0186
     24 C         142.6161  140.4696  166.6838 C.3     1  UNL1        0.0721
     25 N         142.7695  139.3464  165.7014 N.3     1  UNL1       -0.2725
     26 C         141.4170  138.7371  165.4791 C.3     1  UNL1        0.0575
     27 C         140.6760  137.6663  164.7345 C.3     1  UNL1        0.0160
@<TRIPOS>BOND
     1    16    17    1
     2    17    18    1
     3    17    19    1
     4    19    20    1
     5    20    21    1
     6    22    21    1
     7    22    23    1
     8    23    24    1
     9    24    25    1
    10    25    15    1
    11    15     1    1
    12     1     2    1
    13     2     3    1
    14     3     4    1
    15     4     5    1
    16     5     8    1
    17     8     9   ar
    18     9    10   ar
    19    10    11   ar
    20    11    12   ar
    21    12    13    1
    22    12    14   ar
    23     5     6   am
    24     6     7    2
    25    25    26    1
    26    26    27    1
    27    22    17    1
    28     6     2   am
    29    27    19    1
    30    26    22    1
    31    14     8   ar
@<TRIPOS>MOLECULE
*****
 27 31 0 0 0
SMALL
GASTEIGER

@<TRIPOS>ATOM
      1 C         140.0354  144.6764  160.9208 C.3     1  UNL1        0.1123
      2 N         139.5410  144.2241  162.2628 N.am    1  UNL1       -0.2606
      3 C         138.7820  145.0601  163.2503 C.3     1  UNL1        0.1169
      4 C         138.4907  144.2091  164.4507 C.3     1  UNL1        0.1212
      5 N         139.0698  142.8473  164.2051 N.am    1  UNL1       -0.2413
      6 C         139.7189  142.8567  162.8529 C.2     1  UNL1        0.3111
      7 O         140.4224  141.7013  162.2046 O.2     1  UNL1       -0.2520
      8 C         139.0101  141.6811  165.1465 C.ar    1  UNL1        0.0562
      9 C         138.1302  140.5077  164.8321 C.ar    1  UNL1        0.0150
     10 C         138.0705  139.3414  165.7735 C.ar    1  UNL1        0.0021
     11 C         138.8908  139.3484  167.0292 C.ar    1  UNL1        0.0115
     12 C         139.7708  140.5218  167.3437 C.ar    1  UNL1        0.0589
     13 CL        140.5912  140.5288  168.5994 Cl      1  UNL1       -0.0822
     14 C         139.8305  141.6881  166.4023 C.ar    1  UNL1        0.0263
     15 C         141.4779  145.0453  160.7382 C.3     1  UNL1        0.0939
     16 C         142.6463  145.1225  163.6212 C.3     1  UNL1        0.0000
     17 C         143.5930  143.9905  163.3524 C.3     1  UNL1        0.0013
     18 C         142.6370  144.5437  162.3375 C.3     1  UNL1        0.0000
     19 C         144.2344  143.9284  164.7069 C.3     1  UNL1        0.0014
     20 C         145.2560  142.8303  164.6862 C.3     1  UNL1        0.0001
     21 C         145.2461  142.2138  163.3188 C.3     1  UNL1        0.0013
     22 C         144.2183  142.9308  162.4945 C.3     1  UNL1        0.0148
     23 C         144.2084  142.3143  161.1271 C.3     1  UNL1        0.0186
     24 C         143.1806  143.0313  160.3027 C.3     1  UNL1        0.0721
     25 N         142.5553  144.0911  161.1607 N.3     1  UNL1       -0.2725
     26 C         143.1967  144.0289  162.5152 C.3     1  UNL1        0.0575
     27 C         143.2066  144.6455  163.8826 C.3     1  UNL1        0.0160
@<TRIPOS>BOND
     1    16    17    1
     2    17    18    1
     3    17    19    1
     4    19    20    1
     5    20    21    1
     6    22    21    1
     7    22    23    1
     8    23    24    1
     9    24    25    1
    10    25    15    1
    11    15     1    1
    12     1     2    1
    13     2     3    1
    14     3     4    1
    15     4     5    1
    16     5     8    1
    17     8     9   ar
    18     9    10   ar
    19    10    11   ar
    20    11    12   ar
    21    12    13    1
    22    12    14   ar
    23     5     6   am
    24     6     7    2
    25    25    26    1
    26    26    27    1
    27    22    17    1
    28     6     2   am
    29    27    19    1
    30    26    22    1
    31    14     8   ar
@<TRIPOS>MOLECULE
*****
 27 31 0 0 0
SMALL
GASTEIGER

@<TRIPOS>ATOM
      1 C         137.6760  142.8470  163.1994 C.3     1  UNL1        0.1123
      2 N         138.2599  141.7251  164.0058 N.am    1  UNL1       -0.2606
      3 C         138.0729  140.2602  163.7430 C.3     1  UNL1        0.1169
      4 C         138.8308  139.5009  164.7915 C.3     1  UNL1        0.1212
      5 N         139.4860  140.4965  165.7022 N.am    1  UNL1       -0.2413
      6 C         139.1331  141.8712  165.2166 C.2     1  UNL1        0.3111
      7 O         139.5759  143.1648  165.8335 O.2     1  UNL1       -0.2520
      8 C         140.3435  140.1741  166.8898 C.ar    1  UNL1        0.0562
      9 C         141.7786  139.7836  166.6949 C.ar    1  UNL1        0.0150
     10 C         142.6362  139.4612  167.8826 C.ar    1  UNL1        0.0021
     11 C         142.0586  139.5292  169.2653 C.ar    1  UNL1        0.0115
     12 C         140.6235  139.9196  169.4603 C.ar    1  UNL1        0.0589
     13 CL        140.0460  139.9876  170.8429 Cl      1  UNL1       -0.0822
     14 C         139.7659  140.2421  168.2726 C.ar    1  UNL1        0.0263
     15 C         138.5805  143.8296  162.5163 C.3     1  UNL1        0.0939
     16 C         141.1386  145.1965  163.6436 C.3     1  UNL1        0.0000
     17 C         142.0544  144.3397  162.8208 C.3     1  UNL1        0.0013
     18 C         140.5583  144.2348  162.7943 C.3     1  UNL1        0.0000
     19 C         143.3572  144.9181  163.2877 C.3     1  UNL1        0.0014
     20 C         144.4651  144.1966  162.5792 C.3     1  UNL1        0.0001
     21 C         143.8470  143.1722  161.6745 C.3     1  UNL1        0.0013
     22 C         142.3571  143.2606  161.8238 C.3     1  UNL1        0.0148
     23 C         141.7390  142.2362  160.9191 C.3     1  UNL1        0.0186
     24 C         140.2490  142.3246  161.0683 C.3     1  UNL1        0.0721
     25 N         139.9463  143.4037  162.0654 N.3     1  UNL1       -0.2725
     26 C         141.2492  143.9822  162.5323 C.3     1  UNL1        0.0575
     27 C         141.8673  145.0066  163.4370 C.3     1  UNL1        0.0160
@<TRIPOS>BOND
     1    16    17    1
     2    17    18    1
     3    17    19    1
     4    19    20    1
     5    20    21    1
     6    22    21    1
     7    22    23    1
     8    23    24    1
     9    24    25    1
    10    25    15    1
    11    15     1    1
    12     1     2    1
    13     2     3    1
    14     3     4    1
    15     4     5    1
    16     5     8    1
    17     8     9   ar
    18     9    10   ar
    19    10    11   ar
    20    11    12   ar
    21    12    13    1
    22    12    14   ar
    23     5     6   am
    24     6     7    2
    25    25    26    1
    26    26    27    1
    27    22    17    1
    28     6     2   am
    29    27    19    1
    30    26    22    1
    31    14     8   ar
@<TRIPOS>MOLECULE
*****
 27 31 0 0 0
SMALL
GASTEIGER

@<TRIPOS>ATOM
      1 C         139.9785  143.7651  160.0456 C.3     1  UNL1        0.1123
      2 N         139.2725  143.0271  161.1442 N.am    1  UNL1       -0.2606
      3 C         138.0608  143.5033  161.8892 C.3     1  UNL1        0.1169
      4 C         137.6937  142.4537  162.8960 C.3     1  UNL1        0.1212
      5 N         138.6785  141.3289  162.7732 N.am    1  UNL1       -0.2413
      6 C         139.6542  141.6833  161.6904 C.2     1  UNL1        0.3111
      7 O         140.8089  140.8416  161.2341 O.2     1  UNL1       -0.2520
      8 C         138.6861  140.0707  163.5897 C.ar    1  UNL1        0.0562
      9 C         139.0413  138.7622  162.9480 C.ar    1  UNL1        0.0150
     10 C         139.0489  137.5040  163.7644 C.ar    1  UNL1        0.0021
     11 C         138.7014  137.5541  165.2227 C.ar    1  UNL1        0.0115
     12 C         138.3462  138.8625  165.8646 C.ar    1  UNL1        0.0589
     13 CL        137.9986  138.9126  167.3229 Cl      1  UNL1       -0.0822
     14 C         138.3385  140.1208  165.0481 C.ar    1  UNL1        0.0263
     15 C         141.2275  144.5400  160.3449 C.3     1  UNL1        0.0939
     16 C         143.7343  142.8254  161.0227 C.3     1  UNL1        0.0000
     17 C         143.7438  143.2642  162.4569 C.3     1  UNL1        0.0013
     18 C         142.7359  143.7239  161.4457 C.3     1  UNL1        0.0000
     19 C         144.9429  142.4830  162.9064 C.3     1  UNL1        0.0014
     20 C         145.1623  142.7675  164.3627 C.3     1  UNL1        0.0001
     21 C         144.0988  143.7245  164.8134 C.3     1  UNL1        0.0013
     22 C         143.2222  144.0315  163.6356 C.3     1  UNL1        0.0148
     23 C         142.1587  144.9885  164.0862 C.3     1  UNL1        0.0186
     24 C         141.2820  145.2955  162.9084 C.3     1  UNL1        0.0721
     25 N         141.8037  144.5282  161.7298 N.3     1  UNL1       -0.2725
     26 C         143.0028  143.7470  162.1792 C.3     1  UNL1        0.0575
     27 C         144.0663  142.7900  161.7285 C.3     1  UNL1        0.0160
@<TRIPOS>BOND
     1    16    17    1
     2    17    18    1
     3    17    19    1
     4    19    20    1
     5    20    21    1
     6    22    21    1
     7    22    23    1
     8    23    24    1
     9    24    25    1
    10    25    15    1
    11    15     1    1
    12     1     2    1
    13     2     3    1
    14     3     4    1
    15     4     5    1
    16     5     8    1
    17     8     9   ar
    18     9    10   ar
    19    10    11   ar
    20    11    12   ar
    21    12    13    1
    22    12    14   ar
    23     5     6   am
    24     6     7    2
    25    25    26    1
    26    26    27    1
    27    22    17    1
    28     6     2   am
    29    27    19    1
    30    26    22    1
    31    14     8   ar
@<TRIPOS>MOLECULE
*****
 27 31 0 0 0
SMALL
GASTEIGER

@<TRIPOS>ATOM
      1 C         144.4747  140.9908  161.7791 C.3     1  UNL1        0.1123
      2 N         143.8709  140.4036  163.0203 N.am    1  UNL1       -0.2606
      3 C         144.6238  139.7665  164.1505 C.3     1  UNL1        0.1169
      4 C         143.6264  139.3197  165.1780 C.3     1  UNL1        0.1212
      5 N         142.2573  139.6807  164.6828 N.am    1  UNL1       -0.2413
      6 C         142.4085  140.3507  163.3492 C.2     1  UNL1        0.3111
      7 O         141.2929  140.8755  162.4947 O.2     1  UNL1       -0.2520
      8 C         140.9642  139.4179  165.3959 C.ar    1  UNL1        0.0562
      9 C         139.8938  138.6032  164.7323 C.ar    1  UNL1        0.0150
     10 C         138.6006  138.3403  165.4454 C.ar    1  UNL1        0.0021
     11 C         138.3777  138.8923  166.8222 C.ar    1  UNL1        0.0115
     12 C         139.4481  139.7071  167.4859 C.ar    1  UNL1        0.0589
     13 CL        139.2252  140.2590  168.8628 Cl      1  UNL1       -0.0822
     14 C         140.7413  139.9699  166.7728 C.ar    1  UNL1        0.0263
     15 C         144.7433  142.4645  161.7004 C.3     1  UNL1        0.0939
     16 C         142.2579  143.5420  160.1692 C.3     1  UNL1        0.0000
     17 C         141.8138  144.3875  161.3258 C.3     1  UNL1        0.0013
     18 C         143.0374  143.5201  161.3418 C.3     1  UNL1        0.0000
     19 C         140.5869  144.9765  160.6951 C.3     1  UNL1        0.0014
     20 C         139.9453  145.8918  161.6953 C.3     1  UNL1        0.0001
     21 C         140.7756  145.8685  162.9443 C.3     1  UNL1        0.0013
     22 C         141.9304  144.9387  162.7159 C.3     1  UNL1        0.0148
     23 C         142.7607  144.9154  163.9649 C.3     1  UNL1        0.0186
     24 C         143.9156  143.9857  163.7366 C.3     1  UNL1        0.0721
     25 N         143.7989  143.4344  162.3464 N.3     1  UNL1       -0.2725
     26 C         142.5721  144.0235  161.7157 C.3     1  UNL1        0.0575
     27 C         141.7417  144.0468  160.4666 C.3     1  UNL1        0.0160
@<TRIPOS>BOND
     1    16    17    1
     2    17    18    1
     3    17    19    1
     4    19    20    1
     5    20    21    1
     6    22    21    1
     7    22    23    1
     8    23    24    1
     9    24    25    1
    10    25    15    1
    11    15     1    1
    12     1     2    1
    13     2     3    1
    14     3     4    1
    15     4     5    1
    16     5     8    1
    17     8     9   ar
    18     9    10   ar
    19    10    11   ar
    20    11    12   ar
    21    12    13    1
    22    12    14   ar
    23     5     6   am
    24     6     7    2
    25    25    26    1
    26    26    27    1
    27    22    17    1
    28     6     2   am
    29    27    19    1
    30    26    22    1
    31    14     8   ar
@<TRIPOS>MOLECULE
*****
 27 31 0 0 0
SMALL
GASTEIGER

@<TRIPOS>ATOM
      1 C         143.9817  141.2735  163.5599 C.3     1  UNL1        0.1123
      2 N         143.3957  140.5314  164.7244 N.am    1  UNL1       -0.2606
      3 C         143.1493  139.0534  164.7942 C.3     1  UNL1        0.1169
      4 C         142.5545  138.7457  166.1365 C.3     1  UNL1        0.1212
      5 N         142.4333  140.0335  166.8961 N.am    1  UNL1       -0.2413
      6 C         142.9532  141.1371  166.0233 C.2     1  UNL1        0.3111
      7 O         143.0191  142.5911  166.3859 O.2     1  UNL1       -0.2520
      8 C         141.8880  140.1900  168.2846 C.ar    1  UNL1        0.0562
      9 C         142.8218  140.4209  169.4355 C.ar    1  UNL1        0.0150
     10 C         142.2766  140.5775  170.8241 C.ar    1  UNL1        0.0021
     11 C         140.7974  140.5032  171.0618 C.ar    1  UNL1        0.0115
     12 C         139.8635  140.2723  169.9109 C.ar    1  UNL1        0.0589
     13 CL        138.3843  140.1980  170.1486 Cl      1  UNL1       -0.0822
     14 C         140.4087  140.1157  168.5223 C.ar    1  UNL1        0.0263
     15 C         143.1010  142.1222  162.6914 C.3     1  UNL1        0.0939
     16 C         141.4982  144.4564  163.9820 C.3     1  UNL1        0.0000
     17 C         140.1842  143.7539  163.8094 C.3     1  UNL1        0.0013
     18 C         141.5035  143.1824  163.3821 C.3     1  UNL1        0.0000
     19 C         139.3031  144.8082  164.4112 C.3     1  UNL1        0.0014
     20 C         137.8866  144.3183  164.3510 C.3     1  UNL1        0.0001
     21 C         137.8923  142.9612  163.7119 C.3     1  UNL1        0.0013
     22 C         139.3122  142.6124  163.3773 C.3     1  UNL1        0.0148
     23 C         139.3179  141.2554  162.7382 C.3     1  UNL1        0.0186
     24 C         140.7379  140.9065  162.4035 C.3     1  UNL1        0.0721
     25 N         141.6098  142.0480  162.8357 N.3     1  UNL1       -0.2725
     26 C         140.7287  143.1023  163.4375 C.3     1  UNL1        0.0575
     27 C         140.7231  144.4594  164.0765 C.3     1  UNL1        0.0160
@<TRIPOS>BOND
     1    16    17    1
     2    17    18    1
     3    17    19    1
     4    19    20    1
     5    20    21    1
     6    22    21    1
     7    22    23    1
     8    23    24    1
     9    24    25    1
    10    25    15    1
    11    15     1    1
    12     1     2    1
    13     2     3    1
    14     3     4    1
    15     4     5    1
    16     5     8    1
    17     8     9   ar
    18     9    10   ar
    19    10    11   ar
    20    11    12   ar
    21    12    13    1
    22    12    14   ar
    23     5     6   am
    24     6     7    2
    25    25    26    1
    26    26    27    1
    27    22    17    1
    28     6     2   am
    29    27    19    1
    30    26    22    1
    31    14     8   ar
