@<TRIPOS>MOLECULE
*****
 20 21 0 0 0
SMALL
GASTEIGER

@<TRIPOS>ATOM
      1 C         141.0249  142.5467  169.4199 C.2     1  UNL1        0.1535
      2 N         141.0836  142.6073  167.9223 N.2     1  UNL1       -0.2470
      3 C         140.2614  141.4761  167.3799 C.3     1  UNL1        0.1720
      4 C         139.9557  141.0397  165.9777 C.3     1  UNL1        0.1656
      5 O         140.5226  141.7996  164.8153 O.3     1  UNL1       -0.3798
      6 C         139.0830  139.8434  165.7379 C.3     1  UNL1        0.1735
      7 C         138.5161  139.0835  166.9004 C.3     1  UNL1        0.1749
      8 O         138.8219  139.5200  168.3026 O.3     1  UNL1       -0.3402
      9 C         139.6945  140.7162  168.5423 C.3     1  UNL1        0.1938
     10 S         140.1664  141.3779  169.8031 S.3     1  UNL1       -0.0497
     11 H         140.2300  141.3887  163.9868 H       1  UNL1        0.2105
     12 C         137.6435  137.8873  166.6606 C.3     1  UNL1        0.1693
     13 O         136.6590  137.4555  167.7066 O.3     1  UNL1       -0.3794
     14 H         137.1365  137.1528  168.4948 H       1  UNL1        0.2105
     15 N         141.7052  143.4893  170.3679 N.pl3   1  UNL1       -0.3135
     16 H         141.2045  144.2419  170.7578 H       1  UNL1        0.1487
     17 C         144.0169  142.4182  169.8591 C.3     1  UNL1        0.0230
     18 C         143.1485  143.2851  170.7218 C.3     1  UNL1        0.0887
     19 O         138.7773  139.4071  164.3358 O.3     1  UNL1       -0.3485
     20 C         137.9149  140.2622  163.4554 C.3     1  UNL1        0.1742
@<TRIPOS>BOND
     1    17    18    1
     2    18    15    1
     3    15     1    1
     4     1     2    2
     5     3     2    1
     6     3     4    1
     7     4     5    1
     8     4     6    1
     9     6    19    1
    10    19    20    1
    11     6     7    1
    12     7    12    1
    13    12    13    1
    14     7     8    1
    15     9     8    1
    16     9    10    1
    17    10     1    1
    18     9     3    1
    19    15    16    1
    20     5    11    1
    21    13    14    1
@<TRIPOS>MOLECULE
*****
 20 21 0 0 0
SMALL
GASTEIGER

@<TRIPOS>ATOM
      1 C         140.7858  140.7530  169.1620 C.2     1  UNL1        0.1535
      2 N         139.5140  140.3665  168.4670 N.2     1  UNL1       -0.2470
      3 C         139.8766  139.7140  167.1659 C.3     1  UNL1        0.1720
      4 C         139.0379  139.1330  166.0664 C.3     1  UNL1        0.1656
      5 O         137.5419  139.1497  166.1756 O.3     1  UNL1       -0.3798
      6 C         139.6950  138.5352  164.8578 C.3     1  UNL1        0.1735
      7 C         141.1910  138.5185  164.7486 C.3     1  UNL1        0.1749
      8 O         142.0297  139.0996  165.8482 O.3     1  UNL1       -0.3402
      9 C         141.3725  139.6973  167.0568 C.3     1  UNL1        0.1938
     10 S         141.9344  140.3395  168.2904 S.3     1  UNL1       -0.0497
     11 H         137.1556  138.7383  165.3866 H       1  UNL1        0.2105
     12 C         141.8482  137.9207  163.5400 C.3     1  UNL1        0.1693
     13 O         141.2569  136.7058  162.8887 O.3     1  UNL1       -0.3794
     14 H         141.3172  135.9517  163.4959 H       1  UNL1        0.2105
     15 N         140.8906  141.4336  170.4946 N.pl3   1  UNL1       -0.3135
     16 H         141.4371  141.0344  171.2096 H       1  UNL1        0.1487
     17 C         140.3667  143.8851  169.8121 C.3     1  UNL1        0.0230
     18 C         140.1629  142.7225  170.7378 C.3     1  UNL1        0.0887
     19 O         138.8563  137.9541  163.7583 O.3     1  UNL1       -0.3485
     20 C         138.3346  138.8392  162.6654 C.3     1  UNL1        0.1742
@<TRIPOS>BOND
     1    17    18    1
     2    18    15    1
     3    15     1    1
     4     1     2    2
     5     3     2    1
     6     3     4    1
     7     4     5    1
     8     4     6    1
     9     6    19    1
    10    19    20    1
    11     6     7    1
    12     7    12    1
    13    12    13    1
    14     7     8    1
    15     9     8    1
    16     9    10    1
    17    10     1    1
    18     9     3    1
    19    15    16    1
    20     5    11    1
    21    13    14    1
@<TRIPOS>MOLECULE
*****
 20 21 0 0 0
SMALL
GASTEIGER

@<TRIPOS>ATOM
      1 C         138.4941  140.6480  165.3722 C.2     1  UNL1        0.1535
      2 N         137.8929  141.5500  164.3354 N.2     1  UNL1       -0.2470
      3 C         138.8877  142.6294  164.0270 C.3     1  UNL1        0.1720
      4 C         138.8434  143.7958  163.0849 C.3     1  UNL1        0.1656
      5 O         137.6274  144.0307  162.2387 O.3     1  UNL1       -0.3798
      6 C         140.0152  144.7275  162.9891 C.3     1  UNL1        0.1735
      7 C         141.2312  144.4927  163.8354 C.3     1  UNL1        0.1749
      8 O         141.2755  143.3262  164.7775 O.3     1  UNL1       -0.3402
      9 C         140.1037  142.3946  164.8733 C.3     1  UNL1        0.1938
     10 S         139.8604  141.1700  165.7046 S.3     1  UNL1       -0.0497
     11 H         137.7622  144.8198  161.6909 H       1  UNL1        0.2105
     12 C         142.4029  145.4243  163.7396 C.3     1  UNL1        0.1693
     13 O         143.3689  145.2995  162.5989 O.3     1  UNL1       -0.3794
     14 H         143.8390  144.4536  162.6643 H       1  UNL1        0.2105
     15 N         137.8431  139.4367  165.9714 N.pl3   1  UNL1       -0.3135
     16 H         137.0132  139.5309  166.4926 H       1  UNL1        0.1487
     17 C         139.0295  137.7027  164.4432 C.3     1  UNL1        0.0230
     18 C         138.4567  138.0819  165.7766 C.3     1  UNL1        0.0887
     19 O         139.9709  145.8939  162.0471 O.3     1  UNL1       -0.3485
     20 C         140.2737  145.6944  160.5916 C.3     1  UNL1        0.1742
@<TRIPOS>BOND
     1    17    18    1
     2    18    15    1
     3    15     1    1
     4     1     2    2
     5     3     2    1
     6     3     4    1
     7     4     5    1
     8     4     6    1
     9     6    19    1
    10    19    20    1
    11     6     7    1
    12     7    12    1
    13    12    13    1
    14     7     8    1
    15     9     8    1
    16     9    10    1
    17    10     1    1
    18     9     3    1
    19    15    16    1
    20     5    11    1
    21    13    14    1
@<TRIPOS>MOLECULE
*****
 20 21 0 0 0
SMALL
GASTEIGER

@<TRIPOS>ATOM
      1 C         139.1885  140.4312  166.5500 C.2     1  UNL1        0.1535
      2 N         138.2988  140.2509  165.3559 N.2     1  UNL1       -0.2470
      3 C         138.5938  141.3570  164.3867 C.3     1  UNL1        0.1720
      4 C         138.0248  141.6891  163.0391 C.3     1  UNL1        0.1656
      5 O         136.9527  140.8252  162.4440 O.3     1  UNL1       -0.3798
      6 C         138.5279  142.8853  162.2866 C.3     1  UNL1        0.1735
      7 C         139.6000  143.7493  162.8817 C.3     1  UNL1        0.1749
      8 O         140.1690  143.4171  164.2293 O.3     1  UNL1       -0.3402
      9 C         139.6659  142.2210  164.9817 C.3     1  UNL1        0.1938
     10 S         140.0334  141.6488  166.3187 S.3     1  UNL1       -0.0497
     11 H         136.6984  141.1769  161.5766 H       1  UNL1        0.2105
     12 C         140.1030  144.9454  162.1293 C.3     1  UNL1        0.1693
     13 O         139.1308  145.9163  161.5276 O.3     1  UNL1       -0.3794
     14 H         138.6317  145.4779  160.8207 H       1  UNL1        0.2105
     15 N         139.2266  139.5489  167.7624 N.pl3   1  UNL1       -0.3135
     16 H         138.7987  138.6625  167.7398 H       1  UNL1        0.1487
     17 C         139.1647  140.8263  170.0239 C.3     1  UNL1        0.0230
     18 C         139.9167  140.0169  169.0093 C.3     1  UNL1        0.0887
     19 O         137.9588  143.2174  160.9391 O.3     1  UNL1       -0.3485
     20 C         138.5183  142.5682  159.7080 C.3     1  UNL1        0.1742
@<TRIPOS>BOND
     1    17    18    1
     2    18    15    1
     3    15     1    1
     4     1     2    2
     5     3     2    1
     6     3     4    1
     7     4     5    1
     8     4     6    1
     9     6    19    1
    10    19    20    1
    11     6     7    1
    12     7    12    1
    13    12    13    1
    14     7     8    1
    15     9     8    1
    16     9    10    1
    17    10     1    1
    18     9     3    1
    19    15    16    1
    20     5    11    1
    21    13    14    1
@<TRIPOS>MOLECULE
*****
 20 21 0 0 0
SMALL
GASTEIGER

@<TRIPOS>ATOM
      1 C         142.1389  139.1803  166.6640 C.2     1  UNL1        0.1535
      2 N         142.1861  138.2307  165.5038 N.2     1  UNL1       -0.2470
      3 C         141.1056  138.6224  164.5398 C.3     1  UNL1        0.1720
      4 C         140.6804  138.0480  163.2211 C.3     1  UNL1        0.1656
      5 O         141.3954  136.8563  162.6566 O.3     1  UNL1       -0.3798
      6 C         139.5402  138.6653  162.4667 C.3     1  UNL1        0.1735
      7 C         138.8253  139.8570  163.0312 C.3     1  UNL1        0.1749
      8 O         139.2505  140.4314  164.3500 O.3     1  UNL1       -0.3402
      9 C         140.3906  139.8142  165.1043 C.3     1  UNL1        0.1938
     10 S         141.0293  140.1589  166.4171 S.3     1  UNL1       -0.0497
     11 H         140.9985  136.6145  161.8052 H       1  UNL1        0.2105
     12 C         137.6851  140.4742  162.2769 C.3     1  UNL1        0.1693
     13 O         136.6372  141.2575  163.0105 O.3     1  UNL1       -0.3794
     14 H         136.1418  140.6646  163.5970 H       1  UNL1        0.2105
     15 N         143.0427  139.1555  167.8609 N.pl3   1  UNL1       -0.3135
     16 H         143.9137  138.6994  167.8107 H       1  UNL1        0.1487
     17 C         143.0749  141.2233  169.4335 C.3     1  UNL1        0.0230
     18 C         142.6194  139.8258  169.1343 C.3     1  UNL1        0.0887
     19 O         139.1151  138.0908  161.1480 O.3     1  UNL1       -0.3485
     20 C         139.7567  138.5695  159.8795 C.3     1  UNL1        0.1742
@<TRIPOS>BOND
     1    17    18    1
     2    18    15    1
     3    15     1    1
     4     1     2    2
     5     3     2    1
     6     3     4    1
     7     4     5    1
     8     4     6    1
     9     6    19    1
    10    19    20    1
    11     6     7    1
    12     7    12    1
    13    12    13    1
    14     7     8    1
    15     9     8    1
    16     9    10    1
    17    10     1    1
    18     9     3    1
    19    15    16    1
    20     5    11    1
    21    13    14    1
@<TRIPOS>MOLECULE
*****
 20 21 0 0 0
SMALL
GASTEIGER

@<TRIPOS>ATOM
      1 C         138.7812  139.3186  164.5203 C.2     1  UNL1        0.1535
      2 N         139.5996  140.5474  164.7854 N.2     1  UNL1       -0.2470
      3 C         139.7658  140.6823  166.2700 C.3     1  UNL1        0.1720
      4 C         140.4763  141.7002  167.1121 C.3     1  UNL1        0.1656
      5 O         141.1919  142.8457  166.4596 O.3     1  UNL1       -0.3798
      6 C         140.4713  141.5725  168.6067 C.3     1  UNL1        0.1735
      7 C         139.7557  140.4270  169.2592 C.3     1  UNL1        0.1749
      8 O         139.0451  139.4091  168.4170 O.3     1  UNL1       -0.3402
      9 C         139.0502  139.5368  166.9225 C.3     1  UNL1        0.1938
     10 S         138.4417  138.6940  165.8411 S.3     1  UNL1       -0.0497
     11 H         141.5945  143.4060  167.1415 H       1  UNL1        0.2105
     12 C         139.7506  140.2994  170.7537 C.3     1  UNL1        0.1693
     13 O         140.9944  140.6001  171.5363 O.3     1  UNL1       -0.3794
     14 H         141.6783  139.9471  171.3199 H       1  UNL1        0.2105
     15 N         138.3739  138.8046  163.1712 N.pl3   1  UNL1       -0.3135
     16 H         137.5369  139.1169  162.7577 H       1  UNL1        0.1487
     17 C         140.5829  137.4461  163.0143 C.3     1  UNL1        0.0230
     18 C         139.2420  137.8149  162.4523 C.3     1  UNL1        0.0887
     19 O         141.1818  142.5904  169.4487 O.3     1  UNL1       -0.3485
     20 C         140.4789  143.8526  169.8522 C.3     1  UNL1        0.1742
@<TRIPOS>BOND
     1    17    18    1
     2    18    15    1
     3    15     1    1
     4     1     2    2
     5     3     2    1
     6     3     4    1
     7     4     5    1
     8     4     6    1
     9     6    19    1
    10    19    20    1
    11     6     7    1
    12     7    12    1
    13    12    13    1
    14     7     8    1
    15     9     8    1
    16     9    10    1
    17    10     1    1
    18     9     3    1
    19    15    16    1
    20     5    11    1
    21    13    14    1
@<TRIPOS>MOLECULE
*****
 20 21 0 0 0
SMALL
GASTEIGER

@<TRIPOS>ATOM
      1 C         141.0581  140.9749  167.9196 C.2     1  UNL1        0.1535
      2 N         140.2382  140.0741  167.0442 N.2     1  UNL1       -0.2470
      3 C         139.5287  140.9281  166.0356 C.3     1  UNL1        0.1720
      4 C         138.5847  140.5894  164.9203 C.3     1  UNL1        0.1656
      5 O         138.2032  139.1608  164.6683 O.3     1  UNL1       -0.3798
      6 C         138.0220  141.6794  164.0568 C.3     1  UNL1        0.1735
      7 C         138.4035  143.1080  164.3088 C.3     1  UNL1        0.1749
      8 O         139.3476  143.4467  165.4242 O.3     1  UNL1       -0.3402
      9 C         139.9102  142.3567  166.2875 C.3     1  UNL1        0.1938
     10 S         140.8554  142.3856  167.4519 S.3     1  UNL1       -0.0497
     11 H         137.5906  139.1173  163.9175 H       1  UNL1        0.2105
     12 C         137.8409  144.1980  163.4455 C.3     1  UNL1        0.1693
     13 O         137.7250  143.9965  161.9636 O.3     1  UNL1       -0.3794
     14 H         138.6116  143.9244  161.5768 H       1  UNL1        0.2105
     15 N         141.9281  140.5411  169.0620 N.pl3   1  UNL1       -0.3135
     16 H         142.1354  139.5870  169.1881 H       1  UNL1        0.1487
     17 C         143.7507  142.2875  169.6767 C.3     1  UNL1        0.0230
     18 C         142.4820  141.5610  170.0122 C.3     1  UNL1        0.0887
     19 O         137.0779  141.3407  162.9415 O.3     1  UNL1       -0.3485
     20 C         137.5855  140.6409  161.7157 C.3     1  UNL1        0.1742
@<TRIPOS>BOND
     1    17    18    1
     2    18    15    1
     3    15     1    1
     4     1     2    2
     5     3     2    1
     6     3     4    1
     7     4     5    1
     8     4     6    1
     9     6    19    1
    10    19    20    1
    11     6     7    1
    12     7    12    1
    13    12    13    1
    14     7     8    1
    15     9     8    1
    16     9    10    1
    17    10     1    1
    18     9     3    1
    19    15    16    1
    20     5    11    1
    21    13    14    1
@<TRIPOS>MOLECULE
*****
 20 21 0 0 0
SMALL
GASTEIGER

@<TRIPOS>ATOM
      1 C         138.4985  143.7012  162.7634 C.2     1  UNL1        0.1535
      2 N         139.1175  142.5633  162.0070 N.2     1  UNL1       -0.2470
      3 C         139.0149  141.3316  162.8568 C.3     1  UNL1        0.1720
      4 C         139.4547  139.9157  162.6292 C.3     1  UNL1        0.1656
      5 O         140.1370  139.5391  161.3476 O.3     1  UNL1       -0.3798
      6 C         139.2121  138.8763  163.6833 C.3     1  UNL1        0.1735
      7 C         138.5297  139.2529  164.9649 C.3     1  UNL1        0.1749
      8 O         138.0900  140.6689  165.1925 O.3     1  UNL1       -0.3402
      9 C         138.3325  141.7082  164.1385 C.3     1  UNL1        0.1938
     10 S         138.0134  143.1727  164.0807 S.3     1  UNL1       -0.0497
     11 H         140.3535  138.5937  161.3622 H       1  UNL1        0.2105
     12 C         138.2871  138.2137  166.0189 C.3     1  UNL1        0.1693
     13 O         137.1966  138.4110  167.0298 O.3     1  UNL1       -0.3794
     14 H         137.4134  139.1685  167.5955 H       1  UNL1        0.2105
     15 N         138.3847  145.1188  162.2862 N.pl3   1  UNL1       -0.3135
     16 H         137.4972  145.5223  162.1494 H       1  UNL1        0.1487
     17 C         140.9119  145.5613  162.6951 C.3     1  UNL1        0.0230
     18 C         139.6230  145.9214  162.0175 C.3     1  UNL1        0.0887
     19 O         139.6518  137.4604  163.4557 O.3     1  UNL1       -0.3485
     20 C         141.0756  137.0664  163.7154 C.3     1  UNL1        0.1742
@<TRIPOS>BOND
     1    17    18    1
     2    18    15    1
     3    15     1    1
     4     1     2    2
     5     3     2    1
     6     3     4    1
     7     4     5    1
     8     4     6    1
     9     6    19    1
    10    19    20    1
    11     6     7    1
    12     7    12    1
    13    12    13    1
    14     7     8    1
    15     9     8    1
    16     9    10    1
    17    10     1    1
    18     9     3    1
    19    15    16    1
    20     5    11    1
    21    13    14    1
@<TRIPOS>MOLECULE
*****
 20 21 0 0 0
SMALL
GASTEIGER

@<TRIPOS>ATOM
      1 C         141.7744  144.4743  158.4381 C.2     1  UNL1        0.1535
      2 N         141.5233  145.4465  159.5525 N.2     1  UNL1       -0.2470
      3 C         140.5474  144.8195  160.5036 C.3     1  UNL1        0.1720
      4 C         139.9338  145.3110  161.7810 C.3     1  UNL1        0.1656
      5 O         140.2859  146.6707  162.3076 O.3     1  UNL1       -0.3798
      6 C         138.9682  144.4428  162.5320 C.3     1  UNL1        0.1735
      7 C         138.6161  143.0832  162.0054 C.3     1  UNL1        0.1749
      8 O         139.2297  142.5917  160.7278 O.3     1  UNL1       -0.3402
      9 C         140.1953  143.4598  159.9770 C.3     1  UNL1        0.1938
     10 S         140.9536  143.2465  158.7005 S.3     1  UNL1       -0.0497
     11 H         139.8059  146.8312  163.1351 H       1  UNL1        0.2105
     12 C         137.6505  142.2150  162.7562 C.3     1  UNL1        0.1693
     13 O         137.0645  141.0014  162.0976 O.3     1  UNL1       -0.3794
     14 H         136.4968  141.2759  161.3606 H       1  UNL1        0.2105
     15 N         142.6861  144.6918  157.2671 N.pl3   1  UNL1       -0.3135
     16 H         143.6243  144.3967  157.3122 H       1  UNL1        0.1487
     17 C         141.0155  144.7587  155.2785 C.3     1  UNL1        0.0230
     18 C         142.1685  145.3587  156.0273 C.3     1  UNL1        0.0887
     19 O         138.3546  144.9344  163.8094 O.3     1  UNL1       -0.3485
     20 C         139.0913  144.7728  165.1060 C.3     1  UNL1        0.1742
@<TRIPOS>BOND
     1    17    18    1
     2    18    15    1
     3    15     1    1
     4     1     2    2
     5     3     2    1
     6     3     4    1
     7     4     5    1
     8     4     6    1
     9     6    19    1
    10    19    20    1
    11     6     7    1
    12     7    12    1
    13    12    13    1
    14     7     8    1
    15     9     8    1
    16     9    10    1
    17    10     1    1
    18     9     3    1
    19    15    16    1
    20     5    11    1
    21    13    14    1
