@<TRIPOS>MOLECULE
*****
 54 61 0 0 0
SMALL
GASTEIGER

@<TRIPOS>ATOM
      1 C         140.9933  138.6875  155.9396 C.ar    1  UNL1       -0.0061
      2 C         141.9785  139.7883  156.1993 C.ar    1  UNL1       -0.0029
      3 C         141.7259  140.7770  157.2986 C.ar    1  UNL1        0.0013
      4 C         140.4879  140.6650  158.1382 C.ar    1  UNL1        0.0192
      5 C         139.5026  139.5642  157.8785 C.ar    1  UNL1        0.0013
      6 C         139.7553  138.5755  156.7792 C.ar    1  UNL1       -0.0029
      7 C         140.2353  141.6538  159.2375 C.ar    1  UNL1        0.1005
      8 N         140.7344  141.3769  160.6247 N.ar    1  UNL1       -0.2237
      9 C         140.4817  142.3658  161.7240 C.ar    1  UNL1        0.1814
     10 N         140.9808  142.0889  163.1111 N.ar    1  UNL1       -0.2104
     11 C         140.7282  143.0777  164.2104 C.ar    1  UNL1        0.1335
     12 C         139.9764  144.3434  163.9225 C.ar    1  UNL1        0.0360
     13 C         139.4773  144.6203  162.5353 C.ar    1  UNL1        0.0251
     14 C         139.7300  143.6315  161.4361 C.ar    1  UNL1        0.1171
     15 N         139.2309  143.9083  160.0489 N.ar    1  UNL1       -0.2407
     16 C         139.4835  142.9195  158.9496 C.ar    1  UNL1        0.0989
     17 N         141.2273  142.8008  165.5976 N.pl3   1  UNL1       -0.2903
     18 C         140.2791  142.8474  166.7590 C.3     1  UNL1        0.1095
     19 C         140.7782  142.5705  168.1461 C.3     1  UNL1        0.0939
     20 N         142.2254  142.2471  168.3720 N.3     1  UNL1       -0.2677
     21 C         143.1736  142.2006  167.2106 C.3     1  UNL1        0.0939
     22 C         142.6745  142.4775  165.8234 C.3     1  UNL1        0.1095
     23 C         142.7245  141.9703  169.7592 C.3     1  UNL1        0.1043
     24 C         142.2009  140.7903  170.5230 C.3     1  UNL1        0.1544
     25 O         142.3701  140.7257  172.0120 O.3     1  UNL1       -0.3805
     26 H         143.3131  140.6531  172.2274 H       1  UNL1        0.2105
     27 C         138.9844  143.1964  157.5624 C.ar    1  UNL1        0.0191
     28 C         139.8305  143.9804  156.6035 C.ar    1  UNL1        0.0015
     29 C         139.3315  144.2573  155.2164 C.ar    1  UNL1        0.0000
     30 C         137.9864  143.7501  154.7881 C.ar    1  UNL1        0.0000
     31 C         137.1403  142.9661  155.7470 C.ar    1  UNL1        0.0000
     32 C         137.6394  142.6892  157.1341 C.ar    1  UNL1        0.0015
     33 C         141.2459  137.6986  154.8403 C.3     1  UNL1        0.0991
     34 C         142.3196  133.4452  155.8429 C.3     1  UNL1        0.0613
     35 C         142.7689  134.5628  156.7368 C.3     1  UNL1        0.0249
     36 C         142.4109  135.9806  156.4026 C.3     1  UNL1        0.0728
     37 N         141.6038  136.2808  155.1745 N.3     1  UNL1       -0.2689
     38 C         141.1545  135.1633  154.2805 C.3     1  UNL1        0.0728
     39 C         141.5124  133.7455  154.6147 C.3     1  UNL1        0.0249
     40 C         143.3678  130.0478  157.3999 C.ar    1  UNL1        0.1644
     41 N         143.0887  129.6433  155.9826 N.ar    1  UNL1       -0.1293
     42 N         142.6620  130.8667  155.2269 N.ar    1  UNL1       -0.1336
     43 C         142.6775  132.0274  156.1770 C.ar    1  UNL1        0.1396
     44 N         143.1137  131.5213  157.5200 N.ar    1  UNL1       -0.3245
     45 H         143.2153  132.0613  158.3368 H       1  UNL1        0.1686
     46 N         145.1823  126.4107  161.8134 N.pl3   1  UNL1       -0.3426
     47 C         144.7287  127.3200  160.7101 C.ar    1  UNL1        0.1254
     48 C         143.2665  127.4566  160.4042 C.ar    1  UNL1        0.0340
     49 C         142.8130  128.3659  159.3008 C.ar    1  UNL1        0.0075
     50 C         143.8214  129.1386  158.5033 C.ar    1  UNL1        0.0550
     51 C         145.2835  129.0019  158.8092 C.ar    1  UNL1        0.1033
     52 N         145.7371  128.0926  159.9126 N.ar    1  UNL1       -0.2295
     53 H         144.5204  125.9036  162.3369 H       1  UNL1        0.1437
     54 H         146.1419  126.3210  162.0142 H       1  UNL1        0.1437
@<TRIPOS>BOND
     1    46    47    1
     2    47    48   ar
     3    48    49   ar
     4    49    50   ar
     5    50    40    1
     6    40    41   ar
     7    41    42   ar
     8    42    43   ar
     9    43    34    1
    10    34    35    1
    11    35    36    1
    12    36    37    1
    13    37    33    1
    14    33     1    1
    15     1     2   ar
    16     2     3   ar
    17     3     4   ar
    18     4     7    1
    19     7     8   ar
    20     8     9   ar
    21     9    10   ar
    22    10    11   ar
    23    11    17    1
    24    17    18    1
    25    18    19    1
    26    19    20    1
    27    20    23    1
    28    23    24    1
    29    24    25    1
    30    20    21    1
    31    21    22    1
    32    11    12   ar
    33    12    13   ar
    34    13    14   ar
    35    14    15   ar
    36    15    16   ar
    37    16    27    1
    38    27    28   ar
    39    28    29   ar
    40    29    30   ar
    41    30    31   ar
    42    31    32   ar
    43     4     5   ar
    44     5     6   ar
    45    37    38    1
    46    38    39    1
    47    43    44   ar
    48    50    51   ar
    49    51    52   ar
    50    52    47   ar
    51    44    40   ar
    52    39    34    1
    53     6     1   ar
    54    16     7   ar
    55    32    27   ar
    56    14     9   ar
    57    22    17    1
    58    46    53    1
    59    46    54    1
    60    25    26    1
    61    44    45    1
@<TRIPOS>MOLECULE
*****
 54 61 0 0 0
SMALL
GASTEIGER

@<TRIPOS>ATOM
      1 C         137.9769  140.8686  158.8370 C.ar    1  UNL1       -0.0061
      2 C         137.1803  141.1695  157.6021 C.ar    1  UNL1       -0.0029
      3 C         137.7046  142.1452  156.5907 C.ar    1  UNL1        0.0013
      4 C         139.0255  142.8199  156.8141 C.ar    1  UNL1        0.0192
      5 C         139.8221  142.5191  158.0489 C.ar    1  UNL1        0.0013
      6 C         139.2978  141.5434  159.0604 C.ar    1  UNL1       -0.0029
      7 C         139.5499  143.7957  155.8025 C.ar    1  UNL1        0.1005
      8 N         139.2903  145.2633  155.9714 N.ar    1  UNL1       -0.2237
      9 C         139.8146  146.2390  154.9599 C.ar    1  UNL1        0.1814
     10 N         139.5550  147.7067  155.1288 N.ar    1  UNL1       -0.2104
     11 C         140.0793  148.6823  154.1173 C.ar    1  UNL1        0.1335
     12 C         140.8632  148.1903  152.9369 C.ar    1  UNL1        0.0360
     13 C         141.1228  146.7226  152.7680 C.ar    1  UNL1        0.0251
     14 C         140.5985  145.7470  153.7795 C.ar    1  UNL1        0.1171
     15 N         140.8581  144.2793  153.6106 N.ar    1  UNL1       -0.2407
     16 C         140.3338  143.3036  154.6221 C.ar    1  UNL1        0.0989
     17 N         139.8198  150.1500  154.2862 N.pl3   1  UNL1       -0.2903
     18 C         140.5878  151.1463  153.4692 C.3     1  UNL1        0.1095
     19 C         140.3283  152.6140  153.6380 C.3     1  UNL1        0.0939
     20 N         139.3007  153.0854  154.6239 N.3     1  UNL1       -0.2677
     21 C         138.5327  152.0891  155.4409 C.3     1  UNL1        0.0939
     22 C         138.7922  150.6214  155.2720 C.3     1  UNL1        0.1095
     23 C         139.0412  154.5531  154.7927 C.3     1  UNL1        0.1043
     24 C         137.7623  155.0211  155.4217 C.3     1  UNL1        0.1544
     25 O         136.4629  154.8562  154.6909 O.3     1  UNL1       -0.3805
     26 H         136.4660  155.4124  153.8962 H       1  UNL1        0.2105
     27 C         140.5933  141.8359  154.4532 C.ar    1  UNL1        0.0191
     28 C         141.7914  141.2068  155.1004 C.ar    1  UNL1        0.0015
     29 C         142.0510  139.7392  154.9316 C.ar    1  UNL1        0.0000
     30 C         141.1125  138.9006  154.1155 C.ar    1  UNL1        0.0000
     31 C         139.9145  139.5297  153.4683 C.ar    1  UNL1        0.0000
     32 C         139.6549  140.9973  153.6371 C.ar    1  UNL1        0.0015
     33 C         137.4525  139.8929  159.8485 C.3     1  UNL1        0.0991
     34 C         138.7058  140.2275  164.1575 C.3     1  UNL1        0.0613
     35 C         138.1480  141.4231  163.4437 C.3     1  UNL1        0.0249
     36 C         137.7302  141.3115  162.0073 C.3     1  UNL1        0.0728
     37 N         137.8703  140.0044  161.2848 N.3     1  UNL1       -0.2689
     38 C         138.4281  138.8089  161.9987 C.3     1  UNL1        0.0728
     39 C         138.8458  138.9204  163.4350 C.3     1  UNL1        0.0249
     40 C         140.2189  141.0824  167.6281 C.ar    1  UNL1        0.1644
     41 N         139.3139  139.9390  167.9801 N.ar    1  UNL1       -0.1293
     42 N         138.6370  139.4796  166.7229 N.ar    1  UNL1       -0.1336
     43 C         139.1235  140.3391  165.5938 C.ar    1  UNL1        0.1396
     44 N         140.1012  141.3296  166.1533 N.ar    1  UNL1       -0.3245
     45 H         140.5813  142.0207  165.6423 H       1  UNL1        0.1686
     46 N         143.6984  144.1316  171.4486 N.pl3   1  UNL1       -0.3426
     47 C         142.8285  143.3693  170.4935 C.ar    1  UNL1        0.1254
     48 C         143.3989  142.2242  169.7100 C.ar    1  UNL1        0.0340
     49 C         142.5289  141.4620  168.7549 C.ar    1  UNL1        0.0075
     50 C         141.0887  141.8447  168.5832 C.ar    1  UNL1        0.0550
     51 C         140.5185  142.9896  169.3667 C.ar    1  UNL1        0.1033
     52 N         141.3884  143.7519  170.3218 N.ar    1  UNL1       -0.2295
     53 H         144.6436  143.8804  171.5612 H       1  UNL1        0.1437
     54 H         143.3241  144.8830  171.9628 H       1  UNL1        0.1437
@<TRIPOS>BOND
     1    46    47    1
     2    47    48   ar
     3    48    49   ar
     4    49    50   ar
     5    50    40    1
     6    40    41   ar
     7    41    42   ar
     8    42    43   ar
     9    43    34    1
    10    34    35    1
    11    35    36    1
    12    36    37    1
    13    37    33    1
    14    33     1    1
    15     1     2   ar
    16     2     3   ar
    17     3     4   ar
    18     4     7    1
    19     7     8   ar
    20     8     9   ar
    21     9    10   ar
    22    10    11   ar
    23    11    17    1
    24    17    18    1
    25    18    19    1
    26    19    20    1
    27    20    23    1
    28    23    24    1
    29    24    25    1
    30    20    21    1
    31    21    22    1
    32    11    12   ar
    33    12    13   ar
    34    13    14   ar
    35    14    15   ar
    36    15    16   ar
    37    16    27    1
    38    27    28   ar
    39    28    29   ar
    40    29    30   ar
    41    30    31   ar
    42    31    32   ar
    43     4     5   ar
    44     5     6   ar
    45    37    38    1
    46    38    39    1
    47    43    44   ar
    48    50    51   ar
    49    51    52   ar
    50    52    47   ar
    51    44    40   ar
    52    39    34    1
    53     6     1   ar
    54    16     7   ar
    55    32    27   ar
    56    14     9   ar
    57    22    17    1
    58    46    53    1
    59    46    54    1
    60    25    26    1
    61    44    45    1
@<TRIPOS>MOLECULE
*****
 54 61 0 0 0
SMALL
GASTEIGER

@<TRIPOS>ATOM
      1 C         142.3032  140.2701  155.9416 C.ar    1  UNL1       -0.0061
      2 C         143.1258  141.3424  156.5923 C.ar    1  UNL1       -0.0029
      3 C         142.5891  142.0811  157.7823 C.ar    1  UNL1        0.0013
      4 C         141.2298  141.7475  158.3216 C.ar    1  UNL1        0.0192
      5 C         140.4071  140.6753  157.6710 C.ar    1  UNL1        0.0013
      6 C         140.9438  139.9366  156.4809 C.ar    1  UNL1       -0.0029
      7 C         140.6931  142.4863  159.5118 C.ar    1  UNL1        0.1005
      8 N         140.7844  141.8743  160.8781 N.ar    1  UNL1       -0.2237
      9 C         140.2477  142.6130  162.0682 C.ar    1  UNL1        0.1814
     10 N         140.3389  142.0010  163.4346 N.ar    1  UNL1       -0.2104
     11 C         139.8023  142.7398  164.6246 C.ar    1  UNL1        0.1335
     12 C         139.1744  144.0906  164.4483 C.ar    1  UNL1        0.0360
     13 C         139.0831  144.7026  163.0819 C.ar    1  UNL1        0.0251
     14 C         139.6198  143.9638  161.8919 C.ar    1  UNL1        0.1171
     15 N         139.5286  144.5759  160.5254 N.ar    1  UNL1       -0.2407
     16 C         140.0652  143.8371  159.3354 C.ar    1  UNL1        0.0989
     17 N         139.8935  142.1278  165.9911 N.pl3   1  UNL1       -0.2903
     18 C         139.4965  140.6964  166.1998 C.3     1  UNL1        0.1095
     19 C         139.5876  140.0844  167.5662 C.3     1  UNL1        0.0939
     20 N         140.0759  140.9037  168.7240 N.3     1  UNL1       -0.2677
     21 C         140.4729  142.3351  168.5153 C.3     1  UNL1        0.0939
     22 C         140.3817  142.9471  167.1488 C.3     1  UNL1        0.1095
     23 C         140.1671  140.2917  170.0904 C.3     1  UNL1        0.1043
     24 C         141.0637  140.9013  171.1269 C.3     1  UNL1        0.1544
     25 O         140.5728  142.0448  171.9643 O.3     1  UNL1       -0.3805
     26 H         140.4271  142.8199  171.3996 H       1  UNL1        0.2105
     27 C         139.9740  144.4491  157.9689 C.ar    1  UNL1        0.0191
     28 C         140.8758  145.5881  157.5956 C.ar    1  UNL1        0.0015
     29 C         140.7846  146.2002  156.2292 C.ar    1  UNL1        0.0000
     30 C         139.7916  145.6732  155.2361 C.ar    1  UNL1        0.0000
     31 C         138.8898  144.5342  155.6095 C.ar    1  UNL1        0.0000
     32 C         138.9810  143.9221  156.9759 C.ar    1  UNL1        0.0015
     33 C         142.8398  139.5314  154.7515 C.3     1  UNL1        0.0991
     34 C         143.1256  135.0412  154.8316 C.3     1  UNL1        0.0613
     35 C         144.0553  135.8670  155.6705 C.3     1  UNL1        0.0249
     36 C         143.9600  137.3637  155.6437 C.3     1  UNL1        0.0728
     37 N         142.9351  138.0347  154.7782 N.3     1  UNL1       -0.2689
     38 C         142.0053  137.2089  153.9393 C.3     1  UNL1        0.0728
     39 C         142.1005  135.7122  153.9660 C.3     1  UNL1        0.0249
     40 C         143.7180  131.2754  155.5616 C.ar    1  UNL1        0.1644
     41 N         143.0167  131.2071  154.2373 N.ar    1  UNL1       -0.1293
     42 N         142.7095  132.6095  153.8027 N.ar    1  UNL1       -0.1336
     43 C         143.2208  133.5445  154.8583 C.ar    1  UNL1        0.1396
     44 N         143.8441  132.7200  155.9454 N.ar    1  UNL1       -0.3245
     45 H         144.2625  133.0661  156.7666 H       1  UNL1        0.1686
     46 N         145.6749  126.5923  158.7617 N.pl3   1  UNL1       -0.3426
     47 C         145.1856  127.7631  157.9616 C.ar    1  UNL1        0.1254
     48 C         144.6013  128.9560  158.6585 C.ar    1  UNL1        0.0340
     49 C         144.1121  130.1268  157.8584 C.ar    1  UNL1        0.0075
     50 C         144.2072  130.1046  156.3616 C.ar    1  UNL1        0.0550
     51 C         144.7915  128.9117  155.6648 C.ar    1  UNL1        0.1033
     52 N         145.2807  127.7410  156.4648 N.ar    1  UNL1       -0.2295
     53 H         145.6125  126.6069  159.7441 H       1  UNL1        0.1437
     54 H         146.0584  125.8094  158.3043 H       1  UNL1        0.1437
@<TRIPOS>BOND
     1    46    47    1
     2    47    48   ar
     3    48    49   ar
     4    49    50   ar
     5    50    40    1
     6    40    41   ar
     7    41    42   ar
     8    42    43   ar
     9    43    34    1
    10    34    35    1
    11    35    36    1
    12    36    37    1
    13    37    33    1
    14    33     1    1
    15     1     2   ar
    16     2     3   ar
    17     3     4   ar
    18     4     7    1
    19     7     8   ar
    20     8     9   ar
    21     9    10   ar
    22    10    11   ar
    23    11    17    1
    24    17    18    1
    25    18    19    1
    26    19    20    1
    27    20    23    1
    28    23    24    1
    29    24    25    1
    30    20    21    1
    31    21    22    1
    32    11    12   ar
    33    12    13   ar
    34    13    14   ar
    35    14    15   ar
    36    15    16   ar
    37    16    27    1
    38    27    28   ar
    39    28    29   ar
    40    29    30   ar
    41    30    31   ar
    42    31    32   ar
    43     4     5   ar
    44     5     6   ar
    45    37    38    1
    46    38    39    1
    47    43    44   ar
    48    50    51   ar
    49    51    52   ar
    50    52    47   ar
    51    44    40   ar
    52    39    34    1
    53     6     1   ar
    54    16     7   ar
    55    32    27   ar
    56    14     9   ar
    57    22    17    1
    58    46    53    1
    59    46    54    1
    60    25    26    1
    61    44    45    1
@<TRIPOS>MOLECULE
*****
 54 61 0 0 0
SMALL
GASTEIGER

@<TRIPOS>ATOM
      1 C         142.0581  138.4267  158.9469 C.ar    1  UNL1       -0.0061
      2 C         141.5150  137.5093  157.8917 C.ar    1  UNL1       -0.0029
      3 C         140.5029  138.0150  156.9069 C.ar    1  UNL1        0.0013
      4 C         140.0339  139.4381  156.9773 C.ar    1  UNL1        0.0192
      5 C         140.5770  140.3554  158.0324 C.ar    1  UNL1        0.0013
      6 C         141.5891  139.8497  159.0172 C.ar    1  UNL1       -0.0029
      7 C         139.0217  139.9438  155.9924 C.ar    1  UNL1        0.1005
      8 N         137.5680  139.9760  156.3606 N.ar    1  UNL1       -0.2237
      9 C         136.5559  140.4817  155.3757 C.ar    1  UNL1        0.1814
     10 N         135.1022  140.5139  155.7439 N.ar    1  UNL1       -0.2104
     11 C         134.0901  141.0195  154.7590 C.ar    1  UNL1        0.1335
     12 C         134.5318  141.4930  153.4060 C.ar    1  UNL1        0.0360
     13 C         135.9855  141.4608  153.0378 C.ar    1  UNL1        0.0251
     14 C         136.9975  140.9551  154.0226 C.ar    1  UNL1        0.1171
     15 N         138.4513  140.9229  153.6545 N.ar    1  UNL1       -0.2407
     16 C         139.4634  140.4172  154.6393 C.ar    1  UNL1        0.0989
     17 N         132.6363  141.0518  155.1272 N.pl3   1  UNL1       -0.2903
     18 C         132.1348  140.2263  156.2749 C.3     1  UNL1        0.1095
     19 C         130.6811  140.2585  156.6431 C.3     1  UNL1        0.0939
     20 N         129.7288  141.1162  155.8636 N.3     1  UNL1       -0.2677
     21 C         130.2302  141.9416  154.7159 C.3     1  UNL1        0.0939
     22 C         131.6840  141.9094  154.3477 C.3     1  UNL1        0.1095
     23 C         128.2750  141.1484  156.2318 C.3     1  UNL1        0.1043
     24 C         127.7762  140.3345  157.3888 C.3     1  UNL1        0.1544
     25 O         127.7322  138.8385  157.2898 O.3     1  UNL1       -0.3805
     26 H         127.0842  138.5779  156.6167 H       1  UNL1        0.2105
     27 C         140.9172  140.3850  154.2711 C.ar    1  UNL1        0.0191
     28 C         141.4716  139.2195  153.5067 C.ar    1  UNL1        0.0015
     29 C         142.9253  139.1873  153.1385 C.ar    1  UNL1        0.0000
     30 C         143.8246  140.3204  153.5348 C.ar    1  UNL1        0.0000
     31 C         143.2703  141.4858  154.2993 C.ar    1  UNL1        0.0000
     32 C         141.8165  141.5181  154.6674 C.ar    1  UNL1        0.0015
     33 C         143.0702  137.9210  159.9318 C.3     1  UNL1        0.0991
     34 C         142.6676  138.9409  164.2961 C.3     1  UNL1        0.0613
     35 C         141.6675  138.0339  163.6425 C.3     1  UNL1        0.0249
     36 C         141.8018  137.6940  162.1877 C.3     1  UNL1        0.0728
     37 N         142.9360  138.2610  161.3865 N.3     1  UNL1       -0.2689
     38 C         143.9361  139.1680  162.0401 C.3     1  UNL1        0.0728
     39 C         143.8019  139.5080  163.4949 C.3     1  UNL1        0.0249
     40 C         141.7866  140.2974  167.8244 C.ar    1  UNL1        0.1644
     41 N         142.8672  139.3108  168.1547 N.ar    1  UNL1       -0.1293
     42 N         143.3288  138.6826  166.8732 N.ar    1  UNL1       -0.1336
     43 C         142.5334  139.2809  165.7509 C.ar    1  UNL1        0.1396
     44 N         141.5803  140.2789  166.3388 N.ar    1  UNL1       -0.3245
     45 H         140.9330  140.8257  165.8376 H       1  UNL1        0.1686
     46 N         138.8117  143.7171  171.7558 N.pl3   1  UNL1       -0.3426
     47 C         139.5554  142.8622  170.7729 C.ar    1  UNL1        0.1254
     48 C         140.6239  143.4667  169.9110 C.ar    1  UNL1        0.0340
     49 C         141.3676  142.6117  168.9282 C.ar    1  UNL1        0.0075
     50 C         141.0429  141.1523  168.8072 C.ar    1  UNL1        0.0550
     51 C         139.9744  140.5478  169.6692 C.ar    1  UNL1        0.1033
     52 N         139.2307  141.4028  170.6520 N.ar    1  UNL1       -0.2295
     53 H         139.0248  144.6750  171.8351 H       1  UNL1        0.1437
     54 H         138.1104  143.3204  172.3215 H       1  UNL1        0.1437
@<TRIPOS>BOND
     1    46    47    1
     2    47    48   ar
     3    48    49   ar
     4    49    50   ar
     5    50    40    1
     6    40    41   ar
     7    41    42   ar
     8    42    43   ar
     9    43    34    1
    10    34    35    1
    11    35    36    1
    12    36    37    1
    13    37    33    1
    14    33     1    1
    15     1     2   ar
    16     2     3   ar
    17     3     4   ar
    18     4     7    1
    19     7     8   ar
    20     8     9   ar
    21     9    10   ar
    22    10    11   ar
    23    11    17    1
    24    17    18    1
    25    18    19    1
    26    19    20    1
    27    20    23    1
    28    23    24    1
    29    24    25    1
    30    20    21    1
    31    21    22    1
    32    11    12   ar
    33    12    13   ar
    34    13    14   ar
    35    14    15   ar
    36    15    16   ar
    37    16    27    1
    38    27    28   ar
    39    28    29   ar
    40    29    30   ar
    41    30    31   ar
    42    31    32   ar
    43     4     5   ar
    44     5     6   ar
    45    37    38    1
    46    38    39    1
    47    43    44   ar
    48    50    51   ar
    49    51    52   ar
    50    52    47   ar
    51    44    40   ar
    52    39    34    1
    53     6     1   ar
    54    16     7   ar
    55    32    27   ar
    56    14     9   ar
    57    22    17    1
    58    46    53    1
    59    46    54    1
    60    25    26    1
    61    44    45    1
@<TRIPOS>MOLECULE
*****
 54 61 0 0 0
SMALL
GASTEIGER

@<TRIPOS>ATOM
      1 C         139.9957  138.8643  158.7670 C.ar    1  UNL1       -0.0061
      2 C         140.5663  138.0930  157.6140 C.ar    1  UNL1       -0.0029
      3 C         141.3651  138.8010  156.5602 C.ar    1  UNL1        0.0013
      4 C         141.5934  140.2802  156.6594 C.ar    1  UNL1        0.0192
      5 C         141.0227  141.0515  157.8124 C.ar    1  UNL1        0.0013
      6 C         140.2239  140.3435  158.8662 C.ar    1  UNL1       -0.0029
      7 C         142.3923  140.9881  155.6055 C.ar    1  UNL1        0.1005
      8 N         143.8854  141.0684  155.7238 N.ar    1  UNL1       -0.2237
      9 C         144.6843  141.7763  154.6699 C.ar    1  UNL1        0.1814
     10 N         146.1775  141.8566  154.7881 N.ar    1  UNL1       -0.2104
     11 C         146.9763  142.5645  153.7343 C.ar    1  UNL1        0.1335
     12 C         146.2820  143.1921  152.5621 C.ar    1  UNL1        0.0360
     13 C         144.7889  143.1119  152.4438 C.ar    1  UNL1        0.0251
     14 C         143.9900  142.4040  153.4977 C.ar    1  UNL1        0.1171
     15 N         142.4968  142.3237  153.3794 N.ar    1  UNL1       -0.2407
     16 C         141.6980  141.6158  154.4333 C.ar    1  UNL1        0.0989
     17 N         148.4695  142.6447  153.8525 N.pl3   1  UNL1       -0.2903
     18 C         149.2425  143.5804  152.9710 C.3     1  UNL1        0.1095
     19 C         150.7356  143.6607  153.0892 C.3     1  UNL1        0.0939
     20 N         151.4559  142.8053  154.0890 N.3     1  UNL1       -0.2677
     21 C         150.6830  141.8696  154.9705 C.3     1  UNL1        0.0939
     22 C         149.1898  141.7893  154.8523 C.3     1  UNL1        0.1095
     23 C         152.9491  142.8856  154.2072 C.3     1  UNL1        0.1043
     24 C         153.8118  141.8719  153.5156 C.3     1  UNL1        0.1544
     25 O         154.5681  140.8568  154.3203 O.3     1  UNL1       -0.3805
     26 H         155.2415  141.3050  154.8554 H       1  UNL1        0.2105
     27 C         140.2047  141.5355  154.3151 C.ar    1  UNL1        0.0191
     28 C         139.5691  140.3680  153.6201 C.ar    1  UNL1        0.0015
     29 C         138.0760  140.2877  153.5019 C.ar    1  UNL1        0.0000
     30 C         137.2185  141.3749  154.0785 C.ar    1  UNL1        0.0000
     31 C         137.8541  142.5424  154.7735 C.ar    1  UNL1        0.0000
     32 C         139.3472  142.6228  154.8917 C.ar    1  UNL1        0.0015
     33 C         139.1967  138.1564  159.8209 C.3     1  UNL1        0.0991
     34 C         139.6025  139.3583  164.1384 C.3     1  UNL1        0.0613
     35 C         138.3785  139.7471  163.3635 C.3     1  UNL1        0.0249
     36 C         138.2432  139.3464  161.9243 C.3     1  UNL1        0.0728
     37 N         139.3320  138.5570  161.2601 N.3     1  UNL1       -0.2689
     38 C         140.5561  138.1682  162.0350 C.3     1  UNL1        0.0728
     39 C         140.6914  138.5688  163.4741 C.3     1  UNL1        0.0249
     40 C         140.5284  140.8136  167.6154 C.ar    1  UNL1        0.1644
     41 N         139.3635  139.9372  167.9690 N.ar    1  UNL1       -0.1293
     42 N         138.8749  139.2854  166.7095 N.ar    1  UNL1       -0.1336
     43 C         139.7378  139.7589  165.5776 C.ar    1  UNL1        0.1396
     44 N         140.7597  140.7034  166.1375 N.ar    1  UNL1       -0.3245
     45 H         141.4594  141.1692  165.6250 H       1  UNL1        0.1686
     46 N         143.7052  144.1706  171.4416 N.pl3   1  UNL1       -0.3426
     47 C         142.9110  143.3314  170.4851 C.ar    1  UNL1        0.1254
     48 C         143.5869  142.2473  169.6989 C.ar    1  UNL1        0.0340
     49 C         142.7927  141.4081  168.7423 C.ar    1  UNL1        0.0075
     50 C         141.3226  141.6529  168.5720 C.ar    1  UNL1        0.0550
     51 C         140.6468  142.7369  169.3582 C.ar    1  UNL1        0.1033
     52 N         141.4409  143.5761  170.3147 N.ar    1  UNL1       -0.2295
     53 H         144.6700  144.0100  171.5534 H       1  UNL1        0.1437
     54 H         143.2616  144.8821  171.9576 H       1  UNL1        0.1437
@<TRIPOS>BOND
     1    46    47    1
     2    47    48   ar
     3    48    49   ar
     4    49    50   ar
     5    50    40    1
     6    40    41   ar
     7    41    42   ar
     8    42    43   ar
     9    43    34    1
    10    34    35    1
    11    35    36    1
    12    36    37    1
    13    37    33    1
    14    33     1    1
    15     1     2   ar
    16     2     3   ar
    17     3     4   ar
    18     4     7    1
    19     7     8   ar
    20     8     9   ar
    21     9    10   ar
    22    10    11   ar
    23    11    17    1
    24    17    18    1
    25    18    19    1
    26    19    20    1
    27    20    23    1
    28    23    24    1
    29    24    25    1
    30    20    21    1
    31    21    22    1
    32    11    12   ar
    33    12    13   ar
    34    13    14   ar
    35    14    15   ar
    36    15    16   ar
    37    16    27    1
    38    27    28   ar
    39    28    29   ar
    40    29    30   ar
    41    30    31   ar
    42    31    32   ar
    43     4     5   ar
    44     5     6   ar
    45    37    38    1
    46    38    39    1
    47    43    44   ar
    48    50    51   ar
    49    51    52   ar
    50    52    47   ar
    51    44    40   ar
    52    39    34    1
    53     6     1   ar
    54    16     7   ar
    55    32    27   ar
    56    14     9   ar
    57    22    17    1
    58    46    53    1
    59    46    54    1
    60    25    26    1
    61    44    45    1
@<TRIPOS>MOLECULE
*****
 54 61 0 0 0
SMALL
GASTEIGER

@<TRIPOS>ATOM
      1 C         143.8380  141.5149  158.2031 C.ar    1  UNL1       -0.0061
      2 C         144.8444  141.0011  157.2166 C.ar    1  UNL1       -0.0029
      3 C         144.5249  139.8011  156.3754 C.ar    1  UNL1        0.0013
      4 C         143.1990  139.1148  156.5206 C.ar    1  UNL1        0.0192
      5 C         142.1926  139.6285  157.5071 C.ar    1  UNL1        0.0013
      6 C         142.5121  140.8286  158.3484 C.ar    1  UNL1       -0.0029
      7 C         142.8795  137.9147  155.6793 C.ar    1  UNL1        0.1005
      8 N         142.9814  136.5383  156.2667 N.ar    1  UNL1       -0.2237
      9 C         142.6619  135.3382  155.4254 C.ar    1  UNL1        0.1814
     10 N         142.7638  133.9618  156.0128 N.ar    1  UNL1       -0.2104
     11 C         142.4443  132.7618  155.1715 C.ar    1  UNL1        0.1335
     12 C         142.0230  132.9382  153.7427 C.ar    1  UNL1        0.0360
     13 C         141.9211  134.3146  153.1553 C.ar    1  UNL1        0.0251
     14 C         142.2406  135.5146  153.9966 C.ar    1  UNL1        0.1171
     15 N         142.1388  136.8910  153.4092 N.ar    1  UNL1       -0.2407
     16 C         142.4582  138.0910  154.2505 C.ar    1  UNL1        0.0989
     17 N         142.5461  131.3853  155.7589 N.pl3   1  UNL1       -0.2903
     18 C         141.8017  130.2447  155.1305 C.3     1  UNL1        0.1095
     19 C         141.9035  128.8683  155.7179 C.3     1  UNL1        0.0939
     20 N         142.7498  128.6324  156.9337 N.3     1  UNL1       -0.2677
     21 C         143.4942  129.7730  157.5622 C.3     1  UNL1        0.0939
     22 C         143.3924  131.1495  156.9747 C.3     1  UNL1        0.1095
     23 C         142.8516  127.2560  157.5211 C.3     1  UNL1        0.1043
     24 C         141.9857  126.8708  158.6838 C.3     1  UNL1        0.1544
     25 O         141.9186  127.7543  159.8941 O.3     1  UNL1       -0.3805
     26 H         142.7835  127.7676  160.3331 H       1  UNL1        0.2105
     27 C         142.3564  139.4675  153.6631 C.ar    1  UNL1        0.0191
     28 C         143.4969  140.0296  152.8672 C.ar    1  UNL1        0.0015
     29 C         143.3951  141.4060  152.2798 C.ar    1  UNL1        0.0000
     30 C         142.1528  142.2203  152.4882 C.ar    1  UNL1        0.0000
     31 C         141.0123  141.6583  153.2841 C.ar    1  UNL1        0.0000
     32 C         141.1141  140.2819  153.8715 C.ar    1  UNL1        0.0015
     33 C         144.1575  142.7150  159.0445 C.3     1  UNL1        0.0991
     34 C         143.6391  142.5342  163.5109 C.3     1  UNL1        0.0613
     35 C         142.7876  143.4602  162.6939 C.3     1  UNL1        0.0249
     36 C         142.9605  143.5205  161.2050 C.3     1  UNL1        0.0728
     37 N         143.9847  142.6547  160.5332 N.3     1  UNL1       -0.2689
     38 C         144.8362  141.7287  161.3502 C.3     1  UNL1        0.0728
     39 C         144.6634  141.6684  162.8390 C.3     1  UNL1        0.0249
     40 C         142.6738  141.8536  167.2081 C.ar    1  UNL1        0.1644
     41 N         143.7271  142.9088  167.3731 N.ar    1  UNL1       -0.1293
     42 N         144.2169  143.2922  166.0082 N.ar    1  UNL1       -0.1336
     43 C         143.4663  142.4739  164.9996 C.ar    1  UNL1        0.1396
     44 N         142.5127  141.5848  165.7412 N.ar    1  UNL1       -0.3245
     45 H         141.8903  140.9384  165.3363 H       1  UNL1        0.1686
     46 N         139.6383  139.1775  171.6382 N.pl3   1  UNL1       -0.3426
     47 C         140.3972  139.8465  170.5307 C.ar    1  UNL1        0.1254
     48 C         139.8786  141.1186  169.9279 C.ar    1  UNL1        0.0340
     49 C         140.6376  141.7875  168.8204 C.ar    1  UNL1        0.0075
     50 C         141.9149  141.1845  168.3156 C.ar    1  UNL1        0.0550
     51 C         142.4334  139.9126  168.9184 C.ar    1  UNL1        0.1033
     52 N         141.6745  139.2436  170.0259 N.ar    1  UNL1       -0.2295
     53 H         138.7999  139.5733  171.9695 H       1  UNL1        0.1437
     54 H         139.9786  138.3427  172.0337 H       1  UNL1        0.1437
@<TRIPOS>BOND
     1    46    47    1
     2    47    48   ar
     3    48    49   ar
     4    49    50   ar
     5    50    40    1
     6    40    41   ar
     7    41    42   ar
     8    42    43   ar
     9    43    34    1
    10    34    35    1
    11    35    36    1
    12    36    37    1
    13    37    33    1
    14    33     1    1
    15     1     2   ar
    16     2     3   ar
    17     3     4   ar
    18     4     7    1
    19     7     8   ar
    20     8     9   ar
    21     9    10   ar
    22    10    11   ar
    23    11    17    1
    24    17    18    1
    25    18    19    1
    26    19    20    1
    27    20    23    1
    28    23    24    1
    29    24    25    1
    30    20    21    1
    31    21    22    1
    32    11    12   ar
    33    12    13   ar
    34    13    14   ar
    35    14    15   ar
    36    15    16   ar
    37    16    27    1
    38    27    28   ar
    39    28    29   ar
    40    29    30   ar
    41    30    31   ar
    42    31    32   ar
    43     4     5   ar
    44     5     6   ar
    45    37    38    1
    46    38    39    1
    47    43    44   ar
    48    50    51   ar
    49    51    52   ar
    50    52    47   ar
    51    44    40   ar
    52    39    34    1
    53     6     1   ar
    54    16     7   ar
    55    32    27   ar
    56    14     9   ar
    57    22    17    1
    58    46    53    1
    59    46    54    1
    60    25    26    1
    61    44    45    1
@<TRIPOS>MOLECULE
*****
 54 61 0 0 0
SMALL
GASTEIGER

@<TRIPOS>ATOM
      1 C         142.6192  143.0784  158.0927 C.ar    1  UNL1       -0.0061
      2 C         142.2616  141.7171  157.5741 C.ar    1  UNL1       -0.0029
      3 C         141.0411  141.5364  156.7210 C.ar    1  UNL1        0.0013
      4 C         140.1783  142.7169  156.3865 C.ar    1  UNL1        0.0192
      5 C         140.5359  144.0782  156.9051 C.ar    1  UNL1        0.0013
      6 C         141.7563  144.2589  157.7582 C.ar    1  UNL1       -0.0029
      7 C         138.9578  142.5360  155.5334 C.ar    1  UNL1        0.1005
      8 N         137.6872  142.0207  156.1417 N.ar    1  UNL1       -0.2237
      9 C         136.4667  141.8399  155.2886 C.ar    1  UNL1        0.1814
     10 N         135.1961  141.3246  155.8968 N.ar    1  UNL1       -0.2104
     11 C         133.9757  141.1438  155.0437 C.ar    1  UNL1        0.1335
     12 C         134.0259  141.4782  153.5823 C.ar    1  UNL1        0.0360
     13 C         135.2965  141.9935  152.9741 C.ar    1  UNL1        0.0251
     14 C         136.5169  142.1743  153.8272 C.ar    1  UNL1        0.1171
     15 N         137.7876  142.6896  153.2189 N.ar    1  UNL1       -0.2407
     16 C         139.0080  142.8705  154.0720 C.ar    1  UNL1        0.0989
     17 N         132.7050  140.6285  155.6520 N.pl3   1  UNL1       -0.2903
     18 C         132.7322  139.4094  156.5255 C.3     1  UNL1        0.1095
     19 C         131.4616  138.8941  157.1338 C.3     1  UNL1        0.0939
     20 N         130.1637  139.5979  156.8685 N.3     1  UNL1       -0.2677
     21 C         130.1365  140.8169  155.9949 C.3     1  UNL1        0.0939
     22 C         131.4072  141.3322  155.3866 C.3     1  UNL1        0.1095
     23 C         128.8931  139.0826  157.4767 C.3     1  UNL1        0.1043
     24 C         128.6846  137.6061  157.6399 C.3     1  UNL1        0.1544
     25 O         128.5457  136.7301  156.4303 O.3     1  UNL1       -0.3805
     26 H         127.7297  136.9580  155.9580 H       1  UNL1        0.2105
     27 C         140.2787  143.3858  153.4638 C.ar    1  UNL1        0.0191
     28 C         140.5040  144.8633  153.3367 C.ar    1  UNL1        0.0015
     29 C         141.7746  145.3786  152.7285 C.ar    1  UNL1        0.0000
     30 C         142.8199  144.4164  152.2474 C.ar    1  UNL1        0.0000
     31 C         142.5945  142.9389  152.3744 C.ar    1  UNL1        0.0000
     32 C         141.3239  142.4236  152.9826 C.ar    1  UNL1        0.0015
     33 C         143.8397  143.2593  158.9458 C.3     1  UNL1        0.0991
     34 C         143.5515  142.7957  163.4126 C.3     1  UNL1        0.0613
     35 C         142.4696  143.5138  162.6617 C.3     1  UNL1        0.0249
     36 C         142.5657  143.6684  161.1727 C.3     1  UNL1        0.0728
     37 N         143.7437  143.1047  160.4347 N.3     1  UNL1       -0.2689
     38 C         144.8255  142.3866  161.1855 C.3     1  UNL1        0.0728
     39 C         144.7295  142.2320  162.6744 C.3     1  UNL1        0.0249
     40 C         142.7338  141.9281  167.1063 C.ar    1  UNL1        0.1644
     41 N         143.8815  142.8785  167.2790 N.ar    1  UNL1       -0.1293
     42 N         144.3275  143.3191  165.9163 N.ar    1  UNL1       -0.1336
     43 C         143.4555  142.6411  164.9014 C.ar    1  UNL1        0.1396
     44 N         142.4706  141.7815  165.6369 N.ar    1  UNL1       -0.3245
     45 H         141.7737  141.2196  165.2271 H       1  UNL1        0.1686
     46 N         139.7247  139.1936  171.5186 N.pl3   1  UNL1       -0.3426
     47 C         140.4770  139.8772  170.4155 C.ar    1  UNL1        0.1254
     48 C         139.8760  141.0631  169.7207 C.ar    1  UNL1        0.0340
     49 C         140.6284  141.7467  168.6177 C.ar    1  UNL1        0.0075
     50 C         141.9815  141.2445  168.2094 C.ar    1  UNL1        0.0550
     51 C         142.5824  140.0586  168.9041 C.ar    1  UNL1        0.1033
     52 N         141.8301  139.3750  170.0072 N.ar    1  UNL1       -0.2295
     53 H         138.8366  139.5232  171.7865 H       1  UNL1        0.1437
     54 H         140.1191  138.4152  171.9745 H       1  UNL1        0.1437
@<TRIPOS>BOND
     1    46    47    1
     2    47    48   ar
     3    48    49   ar
     4    49    50   ar
     5    50    40    1
     6    40    41   ar
     7    41    42   ar
     8    42    43   ar
     9    43    34    1
    10    34    35    1
    11    35    36    1
    12    36    37    1
    13    37    33    1
    14    33     1    1
    15     1     2   ar
    16     2     3   ar
    17     3     4   ar
    18     4     7    1
    19     7     8   ar
    20     8     9   ar
    21     9    10   ar
    22    10    11   ar
    23    11    17    1
    24    17    18    1
    25    18    19    1
    26    19    20    1
    27    20    23    1
    28    23    24    1
    29    24    25    1
    30    20    21    1
    31    21    22    1
    32    11    12   ar
    33    12    13   ar
    34    13    14   ar
    35    14    15   ar
    36    15    16   ar
    37    16    27    1
    38    27    28   ar
    39    28    29   ar
    40    29    30   ar
    41    30    31   ar
    42    31    32   ar
    43     4     5   ar
    44     5     6   ar
    45    37    38    1
    46    38    39    1
    47    43    44   ar
    48    50    51   ar
    49    51    52   ar
    50    52    47   ar
    51    44    40   ar
    52    39    34    1
    53     6     1   ar
    54    16     7   ar
    55    32    27   ar
    56    14     9   ar
    57    22    17    1
    58    46    53    1
    59    46    54    1
    60    25    26    1
    61    44    45    1
@<TRIPOS>MOLECULE
*****
 54 61 0 0 0
SMALL
GASTEIGER

@<TRIPOS>ATOM
      1 C         141.0033  141.9797  162.3621 C.ar    1  UNL1       -0.0061
      2 C         142.4449  141.6631  162.0949 C.ar    1  UNL1       -0.0029
      3 C         142.8200  140.8094  160.9200 C.ar    1  UNL1        0.0013
      4 C         141.7534  140.2723  160.0123 C.ar    1  UNL1        0.0192
      5 C         140.3118  140.5889  160.2794 C.ar    1  UNL1        0.0013
      6 C         139.9367  141.4426  161.4543 C.ar    1  UNL1       -0.0029
      7 C         142.1286  139.4185  158.8373 C.ar    1  UNL1        0.1005
      8 N         142.3908  137.9540  159.0277 N.ar    1  UNL1       -0.2237
      9 C         142.7660  137.1002  157.8528 C.ar    1  UNL1        0.1814
     10 N         143.0282  135.6357  158.0432 N.ar    1  UNL1       -0.2104
     11 C         143.4034  134.7820  156.8683 C.ar    1  UNL1        0.1335
     12 C         143.5162  135.3928  155.5030 C.ar    1  UNL1        0.0360
     13 C         143.2540  136.8574  155.3126 C.ar    1  UNL1        0.0251
     14 C         142.8788  137.7110  156.4875 C.ar    1  UNL1        0.1171
     15 N         142.6166  139.1757  156.2971 N.ar    1  UNL1       -0.2407
     16 C         142.2414  140.0294  157.4720 C.ar    1  UNL1        0.0989
     17 N         143.6656  133.3173  157.0587 N.pl3   1  UNL1       -0.2903
     18 C         144.8657  132.8653  157.8367 C.3     1  UNL1        0.1095
     19 C         145.1280  131.4008  158.0271 C.3     1  UNL1        0.0939
     20 N         144.1902  130.3882  157.4394 N.3     1  UNL1       -0.2677
     21 C         142.9901  130.8403  156.6614 C.3     1  UNL1        0.0939
     22 C         142.7278  132.3049  156.4710 C.3     1  UNL1        0.1095
     23 C         144.4525  128.9237  157.6298 C.3     1  UNL1        0.1043
     24 C         143.7963  128.1847  158.7582 C.3     1  UNL1        0.1544
     25 O         142.9644  128.9299  159.7594 O.3     1  UNL1       -0.3805
     26 H         143.5312  129.5313  160.2672 H       1  UNL1        0.2105
     27 C         141.9792  141.4940  157.2816 C.ar    1  UNL1        0.0191
     28 C         143.0611  142.4929  157.5669 C.ar    1  UNL1        0.0015
     29 C         142.7989  143.9575  157.3765 C.ar    1  UNL1        0.0000
     30 C         141.4547  144.4231  156.9009 C.ar    1  UNL1        0.0000
     31 C         140.3727  143.4241  156.6156 C.ar    1  UNL1        0.0000
     32 C         140.6349  141.9596  156.8060 C.ar    1  UNL1        0.0015
     33 C         140.6281  142.8335  163.5370 C.3     1  UNL1        0.0991
     34 C         139.7605  140.9254  167.5190 C.3     1  UNL1        0.0613
     35 C         139.2352  140.3037  166.2591 C.3     1  UNL1        0.0249
     36 C         139.5245  140.9397  164.9317 C.3     1  UNL1        0.0728
     37 N         140.3389  142.1975  164.8643 N.3     1  UNL1       -0.2689
     38 C         140.8642  142.8193  166.1243 C.3     1  UNL1        0.0728
     39 C         140.5750  142.1833  167.4516 C.3     1  UNL1        0.0249
     40 C         138.3206  139.1788  170.6719 C.ar    1  UNL1        0.1644
     41 N         139.7320  139.4427  171.1059 N.ar    1  UNL1       -0.1293
     42 N         140.4432  140.1291  169.9776 N.ar    1  UNL1       -0.1336
     43 C         139.4713  140.2894  168.8463 C.ar    1  UNL1        0.1396
     44 N         138.1595  139.7021  169.2754 N.ar    1  UNL1       -0.3245
     45 H         137.3371  139.6664  168.7353 H       1  UNL1        0.1686
     46 N         134.0662  136.5002  173.9470 N.pl3   1  UNL1       -0.3426
     47 C         135.1298  137.1699  173.1282 C.ar    1  UNL1        0.1254
     48 C         136.5284  136.6277  173.1277 C.ar    1  UNL1        0.0340
     49 C         137.5919  137.2974  172.3089 C.ar    1  UNL1        0.0075
     50 C         137.2570  138.5092  171.4907 C.ar    1  UNL1        0.0550
     51 C         135.8584  139.0513  171.4913 C.ar    1  UNL1        0.1033
     52 N         134.7948  138.3816  172.3101 N.ar    1  UNL1       -0.2295
     53 H         134.2860  135.7049  174.4840 H       1  UNL1        0.1437
     54 H         133.1482  136.8560  173.9474 H       1  UNL1        0.1437
@<TRIPOS>BOND
     1    46    47    1
     2    47    48   ar
     3    48    49   ar
     4    49    50   ar
     5    50    40    1
     6    40    41   ar
     7    41    42   ar
     8    42    43   ar
     9    43    34    1
    10    34    35    1
    11    35    36    1
    12    36    37    1
    13    37    33    1
    14    33     1    1
    15     1     2   ar
    16     2     3   ar
    17     3     4   ar
    18     4     7    1
    19     7     8   ar
    20     8     9   ar
    21     9    10   ar
    22    10    11   ar
    23    11    17    1
    24    17    18    1
    25    18    19    1
    26    19    20    1
    27    20    23    1
    28    23    24    1
    29    24    25    1
    30    20    21    1
    31    21    22    1
    32    11    12   ar
    33    12    13   ar
    34    13    14   ar
    35    14    15   ar
    36    15    16   ar
    37    16    27    1
    38    27    28   ar
    39    28    29   ar
    40    29    30   ar
    41    30    31   ar
    42    31    32   ar
    43     4     5   ar
    44     5     6   ar
    45    37    38    1
    46    38    39    1
    47    43    44   ar
    48    50    51   ar
    49    51    52   ar
    50    52    47   ar
    51    44    40   ar
    52    39    34    1
    53     6     1   ar
    54    16     7   ar
    55    32    27   ar
    56    14     9   ar
    57    22    17    1
    58    46    53    1
    59    46    54    1
    60    25    26    1
    61    44    45    1
@<TRIPOS>MOLECULE
*****
 54 61 0 0 0
SMALL
GASTEIGER

@<TRIPOS>ATOM
      1 C         143.1373  141.8082  157.8150 C.ar    1  UNL1       -0.0061
      2 C         144.0002  141.4617  156.6380 C.ar    1  UNL1       -0.0029
      3 C         143.6662  140.2723  155.7874 C.ar    1  UNL1        0.0013
      4 C         142.4691  139.4293  156.1138 C.ar    1  UNL1        0.0192
      5 C         141.6062  139.7758  157.2907 C.ar    1  UNL1        0.0013
      6 C         141.9402  140.9652  158.1413 C.ar    1  UNL1       -0.0029
      7 C         142.1351  138.2398  155.2631 C.ar    1  UNL1        0.1005
      8 N         142.8019  136.9214  155.5222 N.ar    1  UNL1       -0.2237
      9 C         142.4679  135.7319  154.6715 C.ar    1  UNL1        0.1814
     10 N         143.1347  134.4136  154.9306 N.ar    1  UNL1       -0.2104
     11 C         142.8007  133.2242  154.0799 C.ar    1  UNL1        0.1335
     12 C         141.7998  133.3531  152.9702 C.ar    1  UNL1        0.0360
     13 C         141.1329  134.6715  152.7111 C.ar    1  UNL1        0.0251
     14 C         141.4670  135.8609  153.5618 C.ar    1  UNL1        0.1171
     15 N         140.8001  137.1794  153.3027 N.ar    1  UNL1       -0.2407
     16 C         141.1342  138.3688  154.1533 C.ar    1  UNL1        0.0989
     17 N         143.4675  131.9057  154.3390 N.pl3   1  UNL1       -0.2903
     18 C         144.1799  131.6679  155.6375 C.3     1  UNL1        0.1095
     19 C         144.8468  130.3495  155.8966 C.3     1  UNL1        0.0939
     20 N         144.8012  129.2689  154.8572 N.3     1  UNL1       -0.2677
     21 C         144.0888  129.5067  153.5588 C.3     1  UNL1        0.0939
     22 C         143.4219  130.8251  153.2997 C.3     1  UNL1        0.1095
     23 C         145.4681  127.9505  155.1163 C.3     1  UNL1        0.1043
     24 C         146.0830  127.1853  153.9822 C.3     1  UNL1        0.1544
     25 O         147.3879  127.6347  153.3946 O.3     1  UNL1       -0.3805
     26 H         147.2692  128.4957  152.9640 H       1  UNL1        0.2105
     27 C         140.4673  139.6872  153.8943 C.ar    1  UNL1        0.0191
     28 C         139.1225  139.9777  154.4917 C.ar    1  UNL1        0.0015
     29 C         138.4556  141.2960  154.2327 C.ar    1  UNL1        0.0000
     30 C         139.1336  142.3240  153.3762 C.ar    1  UNL1        0.0000
     31 C         140.4785  142.0335  152.7787 C.ar    1  UNL1        0.0000
     32 C         141.1453  140.7151  153.0378 C.ar    1  UNL1        0.0015
     33 C         143.4713  142.9977  158.6656 C.3     1  UNL1        0.0991
     34 C         143.3335  142.6659  163.1513 C.3     1  UNL1        0.0613
     35 C         144.5869  142.3047  162.4107 C.3     1  UNL1        0.0249
     36 C         144.6328  142.4153  160.9154 C.3     1  UNL1        0.0728
     37 N         143.4254  142.8871  160.1608 N.3     1  UNL1       -0.2689
     38 C         142.1720  143.2484  160.9014 C.3     1  UNL1        0.0728
     39 C         142.1260  143.1378  162.3966 C.3     1  UNL1        0.0249
     40 C         142.6364  141.9130  166.8946 C.ar    1  UNL1        0.1644
     41 N         143.7972  142.8573  167.0001 N.ar    1  UNL1       -0.1293
     42 N         144.1996  143.2543  165.6107 N.ar    1  UNL1       -0.1336
     43 C         143.2875  142.5554  164.6464 C.ar    1  UNL1        0.1396
     44 N         142.3215  141.7264  165.4399 N.ar    1  UNL1       -0.3245
     45 H         141.6063  141.1594  165.0708 H       1  UNL1        0.1686
     46 N         139.7586  139.3350  171.4851 N.pl3   1  UNL1       -0.3426
     47 C         140.4781  139.9795  170.3375 C.ar    1  UNL1        0.1254
     48 C         139.8240  141.0910  169.5713 C.ar    1  UNL1        0.0340
     49 C         140.5435  141.7355  168.4237 C.ar    1  UNL1        0.0075
     50 C         141.9170  141.2685  168.0422 C.ar    1  UNL1        0.0550
     51 C         142.5710  140.1571  168.8083 C.ar    1  UNL1        0.1033
     52 N         141.8516  139.5126  169.9559 N.ar    1  UNL1       -0.2295
     53 H         138.8572  139.6415  171.7355 H       1  UNL1        0.1437
     54 H         140.1879  138.6055  171.9879 H       1  UNL1        0.1437
@<TRIPOS>BOND
     1    46    47    1
     2    47    48   ar
     3    48    49   ar
     4    49    50   ar
     5    50    40    1
     6    40    41   ar
     7    41    42   ar
     8    42    43   ar
     9    43    34    1
    10    34    35    1
    11    35    36    1
    12    36    37    1
    13    37    33    1
    14    33     1    1
    15     1     2   ar
    16     2     3   ar
    17     3     4   ar
    18     4     7    1
    19     7     8   ar
    20     8     9   ar
    21     9    10   ar
    22    10    11   ar
    23    11    17    1
    24    17    18    1
    25    18    19    1
    26    19    20    1
    27    20    23    1
    28    23    24    1
    29    24    25    1
    30    20    21    1
    31    21    22    1
    32    11    12   ar
    33    12    13   ar
    34    13    14   ar
    35    14    15   ar
    36    15    16   ar
    37    16    27    1
    38    27    28   ar
    39    28    29   ar
    40    29    30   ar
    41    30    31   ar
    42    31    32   ar
    43     4     5   ar
    44     5     6   ar
    45    37    38    1
    46    38    39    1
    47    43    44   ar
    48    50    51   ar
    49    51    52   ar
    50    52    47   ar
    51    44    40   ar
    52    39    34    1
    53     6     1   ar
    54    16     7   ar
    55    32    27   ar
    56    14     9   ar
    57    22    17    1
    58    46    53    1
    59    46    54    1
    60    25    26    1
    61    44    45    1
