@<TRIPOS>MOLECULE
*****
 39 44 0 0 0
SMALL
GASTEIGER

@<TRIPOS>ATOM
      1 C         142.6847  135.6722  157.3401 C.ar    1  UNL1        0.2400
      2 N         142.1787  135.2891  155.9809 N.ar    1  UNL1       -0.2090
      3 C         141.5018  136.3116  155.1170 C.ar    1  UNL1        0.1037
      4 C         141.1667  137.8060  155.3033 C.ar    1  UNL1        0.0400
      5 C         141.8684  137.2106  156.4878 C.ar    1  UNL1        0.0237
      6 C         142.5139  137.0777  157.8353 C.ar    1  UNL1        0.1179
      7 N         143.0332  137.4221  159.1997 N.pl3   1  UNL1       -0.2104
      8 S         143.3700  138.2061  160.4333 S.O2    1  UNL1        0.0737
      9 O         143.8008  136.7707  160.4954 O.2     1  UNL1       -0.1499
     10 O         144.0529  137.8369  161.7167 O.2     1  UNL1       -0.1499
     11 C         143.4333  139.6895  161.4956 C.ar    1  UNL1        0.1253
     12 C         144.0998  139.4377  162.8156 C.ar    1  UNL1        0.0202
     13 C         144.2368  140.5512  163.8112 C.ar    1  UNL1        0.0015
     14 C         143.7072  141.9166  163.4868 C.ar    1  UNL1        0.0046
     15 C         143.0407  142.1685  162.1668 C.ar    1  UNL1        0.0547
     16 C         142.9038  141.0549  161.1712 C.ar    1  UNL1        0.0247
     17 C         142.5242  143.5470  161.8793 C.2     1  UNL1        0.2459
     18 O         142.9109  144.2275  163.1590 O.2     1  UNL1       -0.2701
     19 N         141.8803  144.7017  161.1707 N.am    1  UNL1       -0.2989
     20 C         141.1789  145.5073  160.1175 C.3     1  UNL1        0.1161
     21 C         140.4959  145.8764  158.8340 C.3     1  UNL1        0.1487
     22 N         139.9055  145.7692  157.4593 N.ar    1  UNL1       -0.2476
     23 C         139.4715  145.1972  156.1423 C.ar    1  UNL1        0.0982
     24 C         139.2410  144.2225  155.0258 C.ar    1  UNL1        0.0589
     25 C         138.7572  145.6284  154.8278 C.ar    1  UNL1        0.1232
     26 N         139.0940  146.4125  156.0615 N.ar    1  UNL1       -0.1676
     27 C         139.2390  142.9505  154.2306 C.ar    1  UNL1        0.1066
     28 C         138.5351  143.6322  153.0950 C.ar    1  UNL1        0.1198
     29 N         138.3267  142.6224  152.0057 N.ar    1  UNL1       -0.2234
     30 C         138.9018  141.3165  152.4680 C.ar    1  UNL1        0.1639
     31 C         139.2909  139.5361  152.2233 C.ar    1  UNL1        0.0404
     32 C         139.9595  138.4731  153.0437 C.ar    1  UNL1        0.0240
     33 C         140.4847  138.7996  154.4102 C.ar    1  UNL1        0.1030
     34 N         139.8964  140.0838  153.9052 N.ar    1  UNL1       -0.1637
     35 N         139.4656  141.5193  153.8431 N.ar    1  UNL1       -0.2106
     36 H         143.3970  136.5452  159.4607 H       1  UNL1        0.1739
     37 H         141.9950  145.3977  161.8575 H       1  UNL1        0.1498
     38 C         144.0999  133.5060  157.5741 C.3     1  UNL1        0.2543
     39 O         143.3616  134.6497  158.2040 O.3     1  UNL1       -0.4553
@<TRIPOS>BOND
     1    38    39    1
     2    39     1    1
     3     1     2   ar
     4     2     3   ar
     5     3     4   ar
     6     4     5   ar
     7     5     6   ar
     8     6     7    1
     9     7     8    1
    10     8     9    2
    11     8    10    2
    12     8    11    1
    13    11    12   ar
    14    12    13   ar
    15    13    14   ar
    16    14    15   ar
    17    15    16   ar
    18    15    17    1
    19    17    18    2
    20    17    19   am
    21    19    20    1
    22    20    21    1
    23    21    22    1
    24    22    23   ar
    25    23    24   ar
    26    24    25   ar
    27    25    26   ar
    28    24    27    1
    29    27    28   ar
    30    28    29   ar
    31    29    30   ar
    32    30    31   ar
    33    31    32   ar
    34    32    33   ar
    35    33    34   ar
    36    34    35   ar
    37     6     1   ar
    38    16    11   ar
    39    26    22   ar
    40    35    27   ar
    41    33     4    1
    42    35    30   ar
    43     7    36    1
    44    19    37    1
@<TRIPOS>MOLECULE
*****
 39 44 0 0 0
SMALL
GASTEIGER

@<TRIPOS>ATOM
      1 C         139.2917  146.9440  156.8619 C.ar    1  UNL1        0.2400
      2 N         139.2506  146.8957  155.3633 N.ar    1  UNL1       -0.2090
      3 C         139.6797  145.6530  154.6409 C.ar    1  UNL1        0.1037
      4 C         140.2038  144.2794  155.1087 C.ar    1  UNL1        0.0400
      5 C         139.9055  145.2112  156.2457 C.ar    1  UNL1        0.0237
      6 C         139.7619  145.7499  157.6383 C.ar    1  UNL1        0.1179
      7 N         139.7887  145.8370  159.1355 N.pl3   1  UNL1       -0.2104
      8 S         139.9830  145.4633  160.5752 S.O2    1  UNL1        0.0737
      9 O         139.4624  146.8563  160.3792 O.2     1  UNL1       -0.1499
     10 O         139.7589  146.2086  161.8574 O.2     1  UNL1       -0.1499
     11 C         140.4408  144.3678  161.9619 C.ar    1  UNL1        0.1253
     12 C         140.2564  145.0120  163.3039 C.ar    1  UNL1        0.0202
     13 C         140.5861  144.2501  164.5532 C.ar    1  UNL1        0.0015
     14 C         141.1001  142.8440  164.4605 C.ar    1  UNL1        0.0046
     15 C         141.2846  142.1998  163.1186 C.ar    1  UNL1        0.0547
     16 C         140.9549  142.9616  161.8693 C.ar    1  UNL1        0.0247
     17 C         141.8007  140.7923  163.0672 C.2     1  UNL1        0.2459
     18 O         141.9544  140.5318  164.5364 O.2     1  UNL1       -0.2701
     19 N         142.2663  139.4706  162.5322 N.am    1  UNL1       -0.2989
     20 C         142.6309  138.3778  161.5714 C.3     1  UNL1        0.1161
     21 C         142.8549  137.6324  160.2891 C.3     1  UNL1        0.1487
     22 N         142.9141  137.3152  158.8242 N.ar    1  UNL1       -0.2476
     23 C         142.8020  137.4605  157.3355 C.ar    1  UNL1        0.0982
     24 C         142.5309  138.0525  155.9843 C.ar    1  UNL1        0.0589
     25 C         143.0506  136.6462  156.0320 C.ar    1  UNL1        0.1232
     26 N         143.2448  136.2725  157.4716 N.ar    1  UNL1       -0.1676
     27 C         142.1301  139.0273  154.9169 C.ar    1  UNL1        0.1066
     28 C         142.4560  138.0278  153.8469 C.ar    1  UNL1        0.1198
     29 N         142.1703  138.6618  152.5179 N.ar    1  UNL1       -0.2234
     30 C         141.6678  140.0530  152.7664 C.ar    1  UNL1        0.1639
     31 C         141.0450  141.6826  152.1852 C.ar    1  UNL1        0.0404
     32 C         140.6044  142.9507  152.8543 C.ar    1  UNL1        0.0240
     33 C         140.6247  143.0555  154.3505 C.ar    1  UNL1        0.1030
     34 N         141.1223  141.6720  154.0532 N.ar    1  UNL1       -0.1637
     35 N         141.6430  140.2789  154.2491 N.ar    1  UNL1       -0.2106
     36 H         139.4549  146.7560  159.2503 H       1  UNL1        0.1739
     37 H         142.4678  139.0141  163.3809 H       1  UNL1        0.1498
     38 C         138.4901  149.4147  156.8076 C.3     1  UNL1        0.2543
     39 O         138.8626  148.1867  157.5842 O.3     1  UNL1       -0.4553
@<TRIPOS>BOND
     1    38    39    1
     2    39     1    1
     3     1     2   ar
     4     2     3   ar
     5     3     4   ar
     6     4     5   ar
     7     5     6   ar
     8     6     7    1
     9     7     8    1
    10     8     9    2
    11     8    10    2
    12     8    11    1
    13    11    12   ar
    14    12    13   ar
    15    13    14   ar
    16    14    15   ar
    17    15    16   ar
    18    15    17    1
    19    17    18    2
    20    17    19   am
    21    19    20    1
    22    20    21    1
    23    21    22    1
    24    22    23   ar
    25    23    24   ar
    26    24    25   ar
    27    25    26   ar
    28    24    27    1
    29    27    28   ar
    30    28    29   ar
    31    29    30   ar
    32    30    31   ar
    33    31    32   ar
    34    32    33   ar
    35    33    34   ar
    36    34    35   ar
    37     6     1   ar
    38    16    11   ar
    39    26    22   ar
    40    35    27   ar
    41    33     4    1
    42    35    30   ar
    43     7    36    1
    44    19    37    1
@<TRIPOS>MOLECULE
*****
 39 44 0 0 0
SMALL
GASTEIGER

@<TRIPOS>ATOM
      1 C         140.0645  145.7831  155.2846 C.ar    1  UNL1        0.2400
      2 N         139.7038  146.8723  156.2509 N.ar    1  UNL1       -0.2090
      3 C         139.7925  146.6243  157.7277 C.ar    1  UNL1        0.1037
      4 C         140.2040  145.4041  158.5774 C.ar    1  UNL1        0.0400
      5 C         140.2849  145.1451  157.1021 C.ar    1  UNL1        0.0237
      6 C         140.5137  144.4461  155.7948 C.ar    1  UNL1        0.1179
      7 N         140.8656  143.3827  154.7972 N.pl3   1  UNL1       -0.2104
      8 S         141.3025  142.0701  154.2174 S.O2    1  UNL1        0.0737
      9 O         140.9542  143.0994  153.1835 O.2     1  UNL1       -0.1499
     10 O         141.4595  141.5845  152.8069 O.2     1  UNL1       -0.1499
     11 C         141.8817  140.3395  154.2686 C.ar    1  UNL1        0.1253
     12 C         142.0752  139.7452  152.9051 C.ar    1  UNL1        0.0202
     13 C         142.5485  138.3288  152.7646 C.ar    1  UNL1        0.0015
     14 C         142.8283  137.5067  153.9877 C.ar    1  UNL1        0.0046
     15 C         142.6347  138.1011  155.3512 C.ar    1  UNL1        0.0547
     16 C         142.1614  139.5174  155.4917 C.ar    1  UNL1        0.0247
     17 C         142.9250  137.2474  156.5499 C.2     1  UNL1        0.2459
     18 O         143.3448  135.9845  155.8579 O.2     1  UNL1       -0.2701
     19 N         143.0771  136.8093  157.9764 N.am    1  UNL1       -0.2989
     20 C         143.0744  136.8345  159.4763 C.3     1  UNL1        0.1161
     21 C         142.9174  137.3201  160.8868 C.3     1  UNL1        0.1487
     22 N         142.6231  138.2135  162.0552 N.ar    1  UNL1       -0.2476
     23 C         142.2232  139.4180  162.8548 C.ar    1  UNL1        0.0982
     24 C         141.7612  140.8028  163.1991 C.ar    1  UNL1        0.0589
     25 C         142.0758  139.8758  164.3356 C.ar    1  UNL1        0.1232
     26 N         142.5126  138.5632  163.7557 N.ar    1  UNL1       -0.1676
     27 C         141.2871  142.2183  163.0506 C.ar    1  UNL1        0.1066
     28 C         141.2374  142.3842  164.5405 C.ar    1  UNL1        0.1198
     29 N         140.7719  143.7791  164.8363 N.ar    1  UNL1       -0.2234
     30 C         140.5339  144.4752  163.5292 C.ar    1  UNL1        0.1639
     31 C         140.0392  145.9424  162.5373 C.ar    1  UNL1        0.0404
     32 C         139.9319  146.2463  161.0724 C.ar    1  UNL1        0.0240
     33 C         140.2798  145.1948  160.0608 C.ar    1  UNL1        0.1030
     34 N         140.5040  144.5400  161.3916 N.ar    1  UNL1       -0.1637
     35 N         140.8524  143.5106  162.4255 N.ar    1  UNL1       -0.2106
     36 H         140.6962  143.8794  153.9643 H       1  UNL1        0.1739
     37 H         143.3854  135.8858  157.8304 H       1  UNL1        0.1498
     38 C         141.0951  146.7318  153.0964 C.3     1  UNL1        0.2543
     39 O         139.9758  146.0312  153.8078 O.3     1  UNL1       -0.4553
@<TRIPOS>BOND
     1    38    39    1
     2    39     1    1
     3     1     2   ar
     4     2     3   ar
     5     3     4   ar
     6     4     5   ar
     7     5     6   ar
     8     6     7    1
     9     7     8    1
    10     8     9    2
    11     8    10    2
    12     8    11    1
    13    11    12   ar
    14    12    13   ar
    15    13    14   ar
    16    14    15   ar
    17    15    16   ar
    18    15    17    1
    19    17    18    2
    20    17    19   am
    21    19    20    1
    22    20    21    1
    23    21    22    1
    24    22    23   ar
    25    23    24   ar
    26    24    25   ar
    27    25    26   ar
    28    24    27    1
    29    27    28   ar
    30    28    29   ar
    31    29    30   ar
    32    30    31   ar
    33    31    32   ar
    34    32    33   ar
    35    33    34   ar
    36    34    35   ar
    37     6     1   ar
    38    16    11   ar
    39    26    22   ar
    40    35    27   ar
    41    33     4    1
    42    35    30   ar
    43     7    36    1
    44    19    37    1
@<TRIPOS>MOLECULE
*****
 39 44 0 0 0
SMALL
GASTEIGER

@<TRIPOS>ATOM
      1 C         143.8199  140.3506  161.9204 C.ar    1  UNL1        0.2400
      2 N         144.3229  138.9706  162.2246 N.ar    1  UNL1       -0.2090
      3 C         144.0863  137.8545  161.2506 C.ar    1  UNL1        0.1037
      4 C         143.3839  137.7718  159.8795 C.ar    1  UNL1        0.0400
      5 C         143.3539  139.1498  160.4713 C.ar    1  UNL1        0.0237
      6 C         143.0805  140.6147  160.6424 C.ar    1  UNL1        0.1179
      7 N         142.5932  142.0078  160.3743 N.pl3   1  UNL1       -0.2104
      8 S         141.9450  143.1781  159.6959 S.O2    1  UNL1        0.0737
      9 O         142.5604  143.5151  161.0216 O.2     1  UNL1       -0.1499
     10 O         141.7912  144.6191  160.0827 O.2     1  UNL1       -0.1499
     11 C         141.0317  144.0335  158.3666 C.ar    1  UNL1        0.1253
     12 C         140.8174  145.4914  158.6465 C.ar    1  UNL1        0.0202
     13 C         140.0830  146.3452  157.6557 C.ar    1  UNL1        0.0015
     14 C         139.5629  145.7411  156.3850 C.ar    1  UNL1        0.0046
     15 C         139.7773  144.2831  156.1052 C.ar    1  UNL1        0.0547
     16 C         140.5116  143.4293  157.0959 C.ar    1  UNL1        0.0247
     17 C         139.2423  143.7160  154.8237 C.2     1  UNL1        0.2459
     18 O         138.6283  144.9550  154.2426 O.2     1  UNL1       -0.2701
     19 N         138.9095  142.7410  153.7335 N.am    1  UNL1       -0.2989
     20 C         138.8148  141.4636  152.9527 C.3     1  UNL1        0.1161
     21 C         138.9687  140.0225  152.5660 C.3     1  UNL1        0.1487
     22 N         139.3542  138.5737  152.6152 N.ar    1  UNL1       -0.2476
     23 C         139.9298  137.2744  153.0950 C.ar    1  UNL1        0.0982
     24 C         140.6330  136.2651  153.9534 C.ar    1  UNL1        0.0589
     25 C         140.0640  135.7884  152.6499 C.ar    1  UNL1        0.1232
     26 N         139.4157  136.9588  151.9716 N.ar    1  UNL1       -0.1676
     27 C         141.3876  135.6553  155.0975 C.ar    1  UNL1        0.1066
     28 C         141.3677  134.3133  154.4278 C.ar    1  UNL1        0.1198
     29 N         142.0796  133.3397  155.3196 N.ar    1  UNL1       -0.2234
     30 C         142.5395  134.0800  156.5403 C.ar    1  UNL1        0.1639
     31 C         143.3820  134.1543  158.1730 C.ar    1  UNL1        0.0404
     32 C         143.6471  135.2314  159.1828 C.ar    1  UNL1        0.0240
     33 C         143.1672  136.6301  158.9311 C.ar    1  UNL1        0.1030
     34 N         142.7273  135.8482  157.7289 N.ar    1  UNL1       -0.1637
     35 N         142.1119  135.5112  156.4031 N.ar    1  UNL1       -0.2106
     36 H         142.9142  142.4519  161.1921 H       1  UNL1        0.1739
     37 H         138.4346  143.3436  153.1166 H       1  UNL1        0.1498
     38 C         145.4481  141.7683  163.3658 C.3     1  UNL1        0.2543
     39 O         144.0565  141.4666  162.8945 O.3     1  UNL1       -0.4553
@<TRIPOS>BOND
     1    38    39    1
     2    39     1    1
     3     1     2   ar
     4     2     3   ar
     5     3     4   ar
     6     4     5   ar
     7     5     6   ar
     8     6     7    1
     9     7     8    1
    10     8     9    2
    11     8    10    2
    12     8    11    1
    13    11    12   ar
    14    12    13   ar
    15    13    14   ar
    16    14    15   ar
    17    15    16   ar
    18    15    17    1
    19    17    18    2
    20    17    19   am
    21    19    20    1
    22    20    21    1
    23    21    22    1
    24    22    23   ar
    25    23    24   ar
    26    24    25   ar
    27    25    26   ar
    28    24    27    1
    29    27    28   ar
    30    28    29   ar
    31    29    30   ar
    32    30    31   ar
    33    31    32   ar
    34    32    33   ar
    35    33    34   ar
    36    34    35   ar
    37     6     1   ar
    38    16    11   ar
    39    26    22   ar
    40    35    27   ar
    41    33     4    1
    42    35    30   ar
    43     7    36    1
    44    19    37    1
@<TRIPOS>MOLECULE
*****
 39 44 0 0 0
SMALL
GASTEIGER

@<TRIPOS>ATOM
      1 C         142.7389  139.6894  162.2353 C.ar    1  UNL1        0.2400
      2 N         142.4684  141.0156  162.8818 N.ar    1  UNL1       -0.2090
      3 C         141.9721  142.1653  162.0559 C.ar    1  UNL1        0.1037
      4 C         141.6398  142.3326  160.5587 C.ar    1  UNL1        0.0400
      5 C         142.1136  140.9517  160.9031 C.ar    1  UNL1        0.0237
      6 C         142.5131  139.5128  160.7630 C.ar    1  UNL1        0.1179
      7 N         142.7950  138.1716  160.1533 N.pl3   1  UNL1       -0.2104
      8 S         142.9288  137.0735  159.1402 S.O2    1  UNL1        0.0737
      9 O         143.3133  136.6611  160.5301 O.2     1  UNL1       -0.1499
     10 O         143.3715  135.6441  159.2438 O.2     1  UNL1       -0.1499
     11 C         142.8369  136.3236  157.4782 C.ar    1  UNL1        0.1253
     12 C         143.2594  134.8845  157.4599 C.ar    1  UNL1        0.0202
     13 C         143.2442  134.1148  156.1725 C.ar    1  UNL1        0.0015
     14 C         142.8064  134.7841  154.9036 C.ar    1  UNL1        0.0046
     15 C         142.3838  136.2232  154.9219 C.ar    1  UNL1        0.0547
     16 C         142.3991  136.9930  156.2092 C.ar    1  UNL1        0.0247
     17 C         141.9526  136.8572  153.6327 C.2     1  UNL1        0.2459
     18 O         142.1254  135.6860  152.7116 O.2     1  UNL1       -0.2701
     19 N         141.4646  137.8767  152.6466 N.am    1  UNL1       -0.2989
     20 C         140.9725  139.1714  152.0706 C.3     1  UNL1        0.1161
     21 C         140.5298  140.6009  151.9670 C.3     1  UNL1        0.1487
     22 N         140.1844  142.0102  152.3471 N.ar    1  UNL1       -0.2476
     23 C         139.9737  143.2467  153.1698 C.ar    1  UNL1        0.0982
     24 C         139.9206  144.1763  154.3456 C.ar    1  UNL1        0.0589
     25 C         139.5067  144.7235  153.0118 C.ar    1  UNL1        0.1232
     26 N         139.6404  143.6254  151.9987 N.ar    1  UNL1       -0.1676
     27 C         140.0308  144.6984  155.7476 C.ar    1  UNL1        0.1066
     28 C         139.5481  146.0492  155.3090 C.ar    1  UNL1        0.1198
     29 N         139.5113  146.9420  156.5138 N.ar    1  UNL1       -0.2234
     30 C         139.9713  146.1430  157.6970 C.ar    1  UNL1        0.1639
     31 C         140.3611  145.9673  159.4853 C.ar    1  UNL1        0.0404
     32 C         140.8559  144.8534  160.3596 C.ar    1  UNL1        0.0240
     33 C         141.1430  143.5057  159.7668 C.ar    1  UNL1        0.1030
     34 N         140.6770  144.3440  158.6134 N.ar    1  UNL1       -0.1637
     35 N         140.2924  144.7564  157.2234 N.ar    1  UNL1       -0.2106
     36 H         143.0904  137.6868  160.9576 H       1  UNL1        0.1739
     37 H         141.4726  137.3282  151.8291 H       1  UNL1        0.1498
     38 C         143.5537  138.7417  164.5130 C.3     1  UNL1        0.2543
     39 O         143.2352  138.5398  163.0612 O.3     1  UNL1       -0.4553
@<TRIPOS>BOND
     1    38    39    1
     2    39     1    1
     3     1     2   ar
     4     2     3   ar
     5     3     4   ar
     6     4     5   ar
     7     5     6   ar
     8     6     7    1
     9     7     8    1
    10     8     9    2
    11     8    10    2
    12     8    11    1
    13    11    12   ar
    14    12    13   ar
    15    13    14   ar
    16    14    15   ar
    17    15    16   ar
    18    15    17    1
    19    17    18    2
    20    17    19   am
    21    19    20    1
    22    20    21    1
    23    21    22    1
    24    22    23   ar
    25    23    24   ar
    26    24    25   ar
    27    25    26   ar
    28    24    27    1
    29    27    28   ar
    30    28    29   ar
    31    29    30   ar
    32    30    31   ar
    33    31    32   ar
    34    32    33   ar
    35    33    34   ar
    36    34    35   ar
    37     6     1   ar
    38    16    11   ar
    39    26    22   ar
    40    35    27   ar
    41    33     4    1
    42    35    30   ar
    43     7    36    1
    44    19    37    1
@<TRIPOS>MOLECULE
*****
 39 44 0 0 0
SMALL
GASTEIGER

@<TRIPOS>ATOM
      1 C         142.9374  136.6927  156.3901 C.ar    1  UNL1        0.2400
      2 N         143.1787  135.8606  157.6147 N.ar    1  UNL1       -0.2090
      3 C         142.9894  136.4589  158.9772 C.ar    1  UNL1        0.1037
      4 C         142.5660  137.8566  159.4745 C.ar    1  UNL1        0.0400
      5 C         142.6073  137.7544  157.9785 C.ar    1  UNL1        0.0237
      6 C         142.5068  138.1228  156.5280 C.ar    1  UNL1        0.1179
      7 N         142.2755  138.9222  155.2800 N.pl3   1  UNL1       -0.2104
      8 S         141.9383  140.0659  154.3698 S.O2    1  UNL1        0.0737
      9 O         142.3206  138.8104  153.6437 O.2     1  UNL1       -0.1499
     10 O         141.9083  140.2008  152.8763 O.2     1  UNL1       -0.1499
     11 C         141.4292  141.7703  153.9589 C.ar    1  UNL1        0.1253
     12 C         141.3637  142.0228  152.4818 C.ar    1  UNL1        0.0202
     13 C         140.9615  143.3738  151.9691 C.ar    1  UNL1        0.0015
     14 C         140.6247  144.4723  152.9335 C.ar    1  UNL1        0.0046
     15 C         140.6902  144.2197  154.4106 C.ar    1  UNL1        0.0547
     16 C         141.0924  142.8687  154.9233 C.ar    1  UNL1        0.0247
     17 C         140.3461  145.3432  155.3429 C.2     1  UNL1        0.2459
     18 O         140.0324  146.4112  154.3375 O.2     1  UNL1       -0.2701
     19 N         140.1053  146.1152  156.6062 N.am    1  UNL1       -0.2989
     20 C         139.9939  146.4520  158.0638 C.3     1  UNL1        0.1161
     21 C         140.0239  146.3170  159.5574 C.3     1  UNL1        0.1487
     22 N         140.1921  145.7250  160.9253 N.ar    1  UNL1       -0.2476
     23 C         140.4803  144.7400  162.0193 C.ar    1  UNL1        0.0982
     24 C         140.8572  143.4689  162.7208 C.ar    1  UNL1        0.0589
     25 C         140.4967  144.6491  163.5735 C.ar    1  UNL1        0.1232
     26 N         140.1595  145.7927  162.6633 N.ar    1  UNL1       -0.1676
     27 C         141.2820  142.0492  162.9538 C.ar    1  UNL1        0.1066
     28 C         141.2125  142.2460  164.4392 C.ar    1  UNL1        0.1198
     29 N         141.5961  140.9534  165.0964 N.ar    1  UNL1       -0.2234
     30 C         141.9028  139.9578  164.0173 C.ar    1  UNL1        0.1639
     31 C         142.4095  138.2844  163.4482 C.ar    1  UNL1        0.0404
     32 C         142.6142  137.6343  162.1120 C.ar    1  UNL1        0.0240
     33 C         142.3875  138.4186  160.8537 C.ar    1  UNL1        0.1030
     34 N         142.0910  139.3795  161.9668 N.ar    1  UNL1       -0.1637
     35 N         141.7087  140.6351  162.6930 N.ar    1  UNL1       -0.2106
     36 H         142.4864  138.2359  154.6065 H       1  UNL1        0.1739
     37 H         139.8474  146.9829  156.2192 H       1  UNL1        0.1498
     38 C         142.8883  134.6292  154.8122 C.3     1  UNL1        0.2543
     39 O         143.1268  136.0943  155.0277 O.3     1  UNL1       -0.4553
@<TRIPOS>BOND
     1    38    39    1
     2    39     1    1
     3     1     2   ar
     4     2     3   ar
     5     3     4   ar
     6     4     5   ar
     7     5     6   ar
     8     6     7    1
     9     7     8    1
    10     8     9    2
    11     8    10    2
    12     8    11    1
    13    11    12   ar
    14    12    13   ar
    15    13    14   ar
    16    14    15   ar
    17    15    16   ar
    18    15    17    1
    19    17    18    2
    20    17    19   am
    21    19    20    1
    22    20    21    1
    23    21    22    1
    24    22    23   ar
    25    23    24   ar
    26    24    25   ar
    27    25    26   ar
    28    24    27    1
    29    27    28   ar
    30    28    29   ar
    31    29    30   ar
    32    30    31   ar
    33    31    32   ar
    34    32    33   ar
    35    33    34   ar
    36    34    35   ar
    37     6     1   ar
    38    16    11   ar
    39    26    22   ar
    40    35    27   ar
    41    33     4    1
    42    35    30   ar
    43     7    36    1
    44    19    37    1
@<TRIPOS>MOLECULE
*****
 39 44 0 0 0
SMALL
GASTEIGER

@<TRIPOS>ATOM
      1 C         141.2646  136.1071  155.0246 C.ar    1  UNL1        0.2400
      2 N         142.0176  135.2574  156.0049 N.ar    1  UNL1       -0.2090
      3 C         142.5003  135.8504  157.2955 C.ar    1  UNL1        0.1037
      4 C         142.4016  137.2572  157.9211 C.ar    1  UNL1        0.0400
      5 C         141.7424  137.1660  156.5769 C.ar    1  UNL1        0.0237
      6 C         140.9943  137.5495  155.3347 C.ar    1  UNL1        0.1179
      7 N         140.2382  138.3664  154.3291 N.pl3   1  UNL1       -0.2104
      8 S         139.5561  139.5281  153.6693 S.O2    1  UNL1        0.0737
      9 O         139.5171  138.2666  152.8587 O.2     1  UNL1       -0.1499
     10 O         138.8428  139.6762  152.3582 O.2     1  UNL1       -0.1499
     11 C         138.9714  141.2517  153.5271 C.ar    1  UNL1        0.1253
     12 C         138.2381  141.5185  152.2461 C.ar    1  UNL1        0.0202
     13 C         137.6892  142.8862  151.9670 C.ar    1  UNL1        0.0015
     14 C         137.8736  143.9872  152.9689 C.ar    1  UNL1        0.0046
     15 C         138.6069  143.7204  154.2499 C.ar    1  UNL1        0.0547
     16 C         139.1558  142.3526  154.5290 C.ar    1  UNL1        0.0247
     17 C         138.7708  144.8469  155.2267 C.2     1  UNL1        0.2459
     18 O         138.0629  145.9329  154.4721 O.2     1  UNL1       -0.2701
     19 N         139.1677  145.6159  156.4518 N.am    1  UNL1       -0.2989
     20 C         139.7548  145.9442  157.7926 C.3     1  UNL1        0.1161
     21 C         140.4682  145.7959  159.1038 C.3     1  UNL1        0.1487
     22 N         141.2307  145.1874  160.2432 N.ar    1  UNL1       -0.2476
     23 C         141.9597  144.1844  161.0873 C.ar    1  UNL1        0.0982
     24 C         142.5762  142.8958  161.5449 C.ar    1  UNL1        0.0589
     25 C         142.6905  144.0802  162.4582 C.ar    1  UNL1        0.1232
     26 N         142.0085  145.2419  161.7983 N.ar    1  UNL1       -0.1676
     27 C         143.0133  141.4610  161.5661 C.ar    1  UNL1        0.1066
     28 C         143.6457  141.6477  162.9134 C.ar    1  UNL1        0.1198
     29 N         144.2470  140.3378  163.3287 N.ar    1  UNL1       -0.2234
     30 C         143.9862  139.3416  162.2382 C.ar    1  UNL1        0.1639
     31 C         144.1163  137.6570  161.5125 C.ar    1  UNL1        0.0404
     32 C         143.6577  137.0116  160.2385 C.ar    1  UNL1        0.0240
     33 C         142.9004  137.8134  159.2219 C.ar    1  UNL1        0.1030
     34 N         143.1848  138.7743  160.3381 N.ar    1  UNL1       -0.1637
     35 N         143.2238  140.0358  161.1488 N.ar    1  UNL1       -0.2106
     36 H         140.0906  137.6791  153.6400 H       1  UNL1        0.1739
     37 H         138.7889  146.4949  156.2212 H       1  UNL1        0.1498
     38 C         141.7554  135.2292  152.6291 C.3     1  UNL1        0.2543
     39 O         140.7819  135.5141  153.7340 O.3     1  UNL1       -0.4553
@<TRIPOS>BOND
     1    38    39    1
     2    39     1    1
     3     1     2   ar
     4     2     3   ar
     5     3     4   ar
     6     4     5   ar
     7     5     6   ar
     8     6     7    1
     9     7     8    1
    10     8     9    2
    11     8    10    2
    12     8    11    1
    13    11    12   ar
    14    12    13   ar
    15    13    14   ar
    16    14    15   ar
    17    15    16   ar
    18    15    17    1
    19    17    18    2
    20    17    19   am
    21    19    20    1
    22    20    21    1
    23    21    22    1
    24    22    23   ar
    25    23    24   ar
    26    24    25   ar
    27    25    26   ar
    28    24    27    1
    29    27    28   ar
    30    28    29   ar
    31    29    30   ar
    32    30    31   ar
    33    31    32   ar
    34    32    33   ar
    35    33    34   ar
    36    34    35   ar
    37     6     1   ar
    38    16    11   ar
    39    26    22   ar
    40    35    27   ar
    41    33     4    1
    42    35    30   ar
    43     7    36    1
    44    19    37    1
@<TRIPOS>MOLECULE
*****
 39 44 0 0 0
SMALL
GASTEIGER

@<TRIPOS>ATOM
      1 C         143.5349  137.0661  156.1386 C.ar    1  UNL1        0.2400
      2 N         143.4618  137.2173  154.6480 N.ar    1  UNL1       -0.2090
      3 C         142.9438  138.4908  154.0479 C.ar    1  UNL1        0.1037
      4 C         142.4169  139.8109  154.6479 C.ar    1  UNL1        0.0400
      5 C         142.8267  138.8148  155.6920 C.ar    1  UNL1        0.0237
      6 C         143.0901  138.1881  157.0290 C.ar    1  UNL1        0.1179
      7 N         143.1785  137.9988  158.5144 N.pl3   1  UNL1       -0.2104
      8 S         143.0824  138.2672  159.9871 S.O2    1  UNL1        0.0737
      9 O         143.6268  136.9092  159.6564 O.2     1  UNL1       -0.1499
     10 O         143.4237  137.4446  161.1940 O.2     1  UNL1       -0.1499
     11 C         142.6987  139.2499  161.4770 C.ar    1  UNL1        0.1253
     12 C         143.0021  138.5228  162.7534 C.ar    1  UNL1        0.0202
     13 C         142.7455  139.1866  164.0738 C.ar    1  UNL1        0.0015
     14 C         142.1855  140.5774  164.1179 C.ar    1  UNL1        0.0046
     15 C         141.8822  141.3045  162.8415 C.ar    1  UNL1        0.0547
     16 C         142.1388  140.6408  161.5211 C.ar    1  UNL1        0.0247
     17 C         141.3232  142.6938  162.9268 C.2     1  UNL1        0.2459
     18 O         141.2730  142.8487  164.4179 O.2     1  UNL1       -0.2701
     19 N         140.7807  144.0322  162.5213 N.am    1  UNL1       -0.2989
     20 C         140.3135  145.1746  161.6688 C.3     1  UNL1        0.1161
     21 C         139.9723  145.9972  160.4617 C.3     1  UNL1        0.1487
     22 N         139.7939  146.4109  159.0310 N.ar    1  UNL1       -0.2476
     23 C         139.7978  146.3708  157.5315 C.ar    1  UNL1        0.0982
     24 C         139.9835  145.8814  156.1259 C.ar    1  UNL1        0.0589
     25 C         139.4286  147.2627  156.3100 C.ar    1  UNL1        0.1232
     26 N         139.3325  147.5311  157.7826 N.ar    1  UNL1       -0.1676
     27 C         140.3309  144.9954  154.9663 C.ar    1  UNL1        0.1066
     28 C         139.8968  146.0535  153.9958 C.ar    1  UNL1        0.1198
     29 N         140.0999  145.5212  152.6082 N.ar    1  UNL1       -0.2234
     30 C         140.6595  144.1342  152.7211 C.ar    1  UNL1        0.1639
     31 C         141.2837  142.5700  151.9831 C.ar    1  UNL1        0.0404
     32 C         141.8098  141.2751  152.5276 C.ar    1  UNL1        0.0240
     33 C         141.9051  141.0684  154.0102 C.ar    1  UNL1        0.1030
     34 N         141.3468  142.4512  153.8478 N.ar    1  UNL1       -0.1637
     35 N         140.8024  143.8092  154.1785 N.ar    1  UNL1       -0.2106
     36 H         143.5465  137.0860  158.5398 H       1  UNL1        0.1739
     37 H         140.6306  144.4230  163.4124 H       1  UNL1        0.1498
     38 C         143.1539  134.5972  156.8524 C.3     1  UNL1        0.2543
     39 O         144.0528  135.7925  156.7385 O.3     1  UNL1       -0.4553
@<TRIPOS>BOND
     1    38    39    1
     2    39     1    1
     3     1     2   ar
     4     2     3   ar
     5     3     4   ar
     6     4     5   ar
     7     5     6   ar
     8     6     7    1
     9     7     8    1
    10     8     9    2
    11     8    10    2
    12     8    11    1
    13    11    12   ar
    14    12    13   ar
    15    13    14   ar
    16    14    15   ar
    17    15    16   ar
    18    15    17    1
    19    17    18    2
    20    17    19   am
    21    19    20    1
    22    20    21    1
    23    21    22    1
    24    22    23   ar
    25    23    24   ar
    26    24    25   ar
    27    25    26   ar
    28    24    27    1
    29    27    28   ar
    30    28    29   ar
    31    29    30   ar
    32    30    31   ar
    33    31    32   ar
    34    32    33   ar
    35    33    34   ar
    36    34    35   ar
    37     6     1   ar
    38    16    11   ar
    39    26    22   ar
    40    35    27   ar
    41    33     4    1
    42    35    30   ar
    43     7    36    1
    44    19    37    1
@<TRIPOS>MOLECULE
*****
 39 44 0 0 0
SMALL
GASTEIGER

@<TRIPOS>ATOM
      1 C         142.8749  143.0067  161.8143 C.ar    1  UNL1        0.2400
      2 N         143.3112  141.8427  162.6539 N.ar    1  UNL1       -0.2090
      3 C         143.3941  140.4719  162.0504 C.ar    1  UNL1        0.1037
      4 C         143.1128  139.9131  160.6401 C.ar    1  UNL1        0.0400
      5 C         142.8753  141.3905  160.7432 C.ar    1  UNL1        0.0237
      6 C         142.5215  142.8000  160.3713 C.ar    1  UNL1        0.1179
      7 N         142.0896  143.9886  159.5647 N.pl3   1  UNL1       -0.2104
      8 S         141.6266  144.8277  158.4107 S.O2    1  UNL1        0.0737
      9 O         141.8299  145.6048  159.6775 O.2     1  UNL1       -0.1499
     10 O         141.3269  146.2910  158.2745 O.2     1  UNL1       -0.1499
     11 C         141.1038  145.1475  156.6911 C.ar    1  UNL1        0.1253
     12 C         140.7759  146.5888  156.4361 C.ar    1  UNL1        0.0202
     13 C         140.3284  147.0264  155.0730 C.ar    1  UNL1        0.0015
     14 C         140.2087  146.0226  153.9648 C.ar    1  UNL1        0.0046
     15 C         140.5366  144.5813  154.2197 C.ar    1  UNL1        0.0547
     16 C         140.9842  144.1437  155.5828 C.ar    1  UNL1        0.0247
     17 C         140.4048  143.6078  153.0862 C.2     1  UNL1        0.2459
     18 O         139.9449  144.5444  152.0085 O.2     1  UNL1       -0.2701
     19 N         140.4242  142.3260  152.3073 N.am    1  UNL1       -0.2989
     20 C         140.5930  140.8747  151.9676 C.3     1  UNL1        0.1161
     21 C         140.8927  139.4113  152.1039 C.3     1  UNL1        0.1487
     22 N         141.2910  138.0943  152.7013 N.ar    1  UNL1       -0.2476
     23 C         141.7446  137.0665  153.6952 C.ar    1  UNL1        0.0982
     24 C         142.2044  136.4391  154.9777 C.ar    1  UNL1        0.0589
     25 C         142.0434  135.5412  153.7870 C.ar    1  UNL1        0.1232
     26 N         141.5804  136.3803  152.6330 N.ar    1  UNL1       -0.1676
     27 C         142.6206  136.2803  156.4101 C.ar    1  UNL1        0.1066
     28 C         142.8313  134.8085  156.2117 C.ar    1  UNL1        0.1198
     29 N         143.2889  134.2257  157.5159 N.ar    1  UNL1       -0.2234
     30 C         143.3610  135.3374  158.5203 C.ar    1  UNL1        0.1639
     31 C         143.7024  135.9806  160.2088 C.ar    1  UNL1        0.0404
     32 C         143.6379  137.3281  160.8646 C.ar    1  UNL1        0.0240
     33 C         143.2082  138.5276  160.0731 C.ar    1  UNL1        0.1030
     34 N         143.1512  137.3843  159.1038 N.ar    1  UNL1       -0.1637
     35 N         142.9480  136.6071  157.8370 N.ar    1  UNL1       -0.2106
     36 H         142.1518  144.6856  160.2572 H       1  UNL1        0.1739
     37 H         140.1266  142.6639  151.4318 H       1  UNL1        0.1498
     38 C         143.7248  144.7665  163.5262 C.3     1  UNL1        0.2543
     39 O         142.7920  144.3774  162.4179 O.3     1  UNL1       -0.4553
@<TRIPOS>BOND
     1    38    39    1
     2    39     1    1
     3     1     2   ar
     4     2     3   ar
     5     3     4   ar
     6     4     5   ar
     7     5     6   ar
     8     6     7    1
     9     7     8    1
    10     8     9    2
    11     8    10    2
    12     8    11    1
    13    11    12   ar
    14    12    13   ar
    15    13    14   ar
    16    14    15   ar
    17    15    16   ar
    18    15    17    1
    19    17    18    2
    20    17    19   am
    21    19    20    1
    22    20    21    1
    23    21    22    1
    24    22    23   ar
    25    23    24   ar
    26    24    25   ar
    27    25    26   ar
    28    24    27    1
    29    27    28   ar
    30    28    29   ar
    31    29    30   ar
    32    30    31   ar
    33    31    32   ar
    34    32    33   ar
    35    33    34   ar
    36    34    35   ar
    37     6     1   ar
    38    16    11   ar
    39    26    22   ar
    40    35    27   ar
    41    33     4    1
    42    35    30   ar
    43     7    36    1
    44    19    37    1
