@<TRIPOS>MOLECULE
*****
 33 38 0 0 0
SMALL
GASTEIGER

@<TRIPOS>ATOM
      1 C         142.3456  138.3645  157.9437 C.2     1  UNL1        0.1253
      2 C         142.5907  139.6590  157.2267 C.2     1  UNL1        0.0701
      3 C         143.3559  139.6686  155.9366 C.2     1  UNL1        0.2372
      4 N         143.8760  138.3837  155.3636 N.2     1  UNL1       -0.0302
      5 C         143.6310  137.0892  156.0806 C.2     1  UNL1        0.4107
      6 N         144.0184  135.6758  155.7610 N.2     1  UNL1        0.0120
      7 C         143.4927  134.7927  156.8536 C.2     1  UNL1        0.3752
      8 N         142.7803  135.6602  157.8484 N.2     1  UNL1       -0.0448
      9 C         142.8658  137.0796  157.3706 C.3     1  UNL1        0.3643
     10 C         143.6516  133.3033  156.9367 C.ar    1  UNL1        0.0896
     11 C         144.7581  132.7118  157.7587 C.ar    1  UNL1        0.0078
     12 C         144.9170  131.2226  157.8418 C.ar    1  UNL1        0.0017
     13 C         143.9693  130.3249  157.1029 C.ar    1  UNL1        0.0172
     14 C         142.8627  130.9164  156.2809 C.ar    1  UNL1        0.0602
     15 C         142.7039  132.4056  156.1978 C.ar    1  UNL1        0.0247
     16 C         141.5267  132.6977  155.3150 C.ar    1  UNL1        0.0203
     17 C         140.9582  131.3890  154.8526 C.ar    1  UNL1        0.0760
     18 N         141.7839  130.2881  155.4496 N.ar    1  UNL1       -0.3240
     19 C         141.5684  128.8171  155.2501 C.3     1  UNL1        0.1305
     20 C         141.1194  137.8249  163.0512 C.3     1  UNL1        0.0537
     21 C         141.0168  138.1069  161.5815 C.ar    1  UNL1        0.0781
     22 N         142.1239  137.9719  160.5785 N.ar    1  UNL1       -0.1699
     23 N         141.5804  138.3549  159.2339 N.ar    1  UNL1       -0.2280
     24 C         140.1374  138.7266  159.4059 C.ar    1  UNL1        0.0984
     25 C         139.7891  138.5733  160.8568 C.ar    1  UNL1        0.0283
     26 C         138.4484  138.8396  161.4746 C.3     1  UNL1        0.1020
     27 N         138.1763  140.1577  162.1370 N.3     1  UNL1       -0.2667
     28 C         137.9749  140.3810  163.6065 C.3     1  UNL1        0.0750
     29 C         137.7320  141.8451  163.8238 C.3     1  UNL1        0.0480
     30 C         137.7833  142.5268  162.4886 C.3     1  UNL1        0.1278
     31 O         137.5933  143.9937  162.2396 O.3     1  UNL1       -0.3830
     32 C         138.0579  141.4838  161.4461 C.3     1  UNL1        0.1020
     33 H         137.6752  144.1737  161.2900 H       1  UNL1        0.2104
@<TRIPOS>BOND
     1    20    21    1
     2    21    22   ar
     3    22    23   ar
     4    23     1    1
     5     1     2    2
     6     2     3    1
     7     3     4    2
     8     4     5    1
     9     5     6    2
    10     6     7    1
    11     7    10    1
    12    10    11   ar
    13    11    12   ar
    14    12    13   ar
    15    13    14   ar
    16    14    15   ar
    17    15    16   ar
    18    16    17   ar
    19    17    18   ar
    20    18    19    1
    21     7     8    2
    22     8     9    1
    23    23    24   ar
    24    24    25   ar
    25    25    26    1
    26    26    27    1
    27    27    28    1
    28    28    29    1
    29    29    30    1
    30    30    31    1
    31    30    32    1
    32    25    21   ar
    33    32    27    1
    34     9     1    1
    35     9     5    1
    36    15    10   ar
    37    18    14   ar
    38    31    33    1
@<TRIPOS>MOLECULE
*****
 33 38 0 0 0
SMALL
GASTEIGER

@<TRIPOS>ATOM
      1 C         142.6363  138.6833  157.6683 C.2     1  UNL1        0.1253
      2 C         143.4095  139.9086  157.2804 C.2     1  UNL1        0.0701
      3 C         144.4402  139.8321  156.1933 C.2     1  UNL1        0.2372
      4 N         144.6977  138.5302  155.4942 N.2     1  UNL1       -0.0302
      5 C         143.9244  137.3048  155.8821 C.2     1  UNL1        0.4107
      6 N         143.9596  135.8935  155.3753 N.2     1  UNL1        0.0120
      7 C         142.9507  135.0977  156.1492 C.2     1  UNL1        0.3752
      8 N         142.2919  136.0173  157.1343 N.2     1  UNL1       -0.0448
      9 C         142.8937  137.3814  156.9692 C.3     1  UNL1        0.3643
     10 C         142.6528  133.6386  155.9695 C.ar    1  UNL1        0.0896
     11 C         141.5253  133.2074  155.0791 C.ar    1  UNL1        0.0078
     12 C         141.2275  131.7483  154.8994 C.ar    1  UNL1        0.0017
     13 C         142.0571  130.7204  155.6101 C.ar    1  UNL1        0.0172
     14 C         143.1847  131.1516  156.5004 C.ar    1  UNL1        0.0602
     15 C         143.4825  132.6107  156.6802 C.ar    1  UNL1        0.0247
     16 C         144.6493  132.7339  157.6149 C.ar    1  UNL1        0.0203
     17 C         145.0725  131.3511  158.0128 C.ar    1  UNL1        0.0760
     18 N         144.1673  130.3731  157.3240 N.ar    1  UNL1       -0.3240
     19 C         144.2333  128.8789  157.4388 C.3     1  UNL1        0.1305
     20 C         140.2035  138.1727  162.3269 C.3     1  UNL1        0.0537
     21 C         140.4873  138.5251  160.8968 C.ar    1  UNL1        0.0781
     22 N         141.7567  138.2345  160.1523 N.ar    1  UNL1       -0.1699
     23 N         141.6055  138.7598  158.7554 N.ar    1  UNL1       -0.2280
     24 C         140.2426  139.3749  158.6365 C.ar    1  UNL1        0.0984
     25 C         139.5516  139.2299  159.9599 C.ar    1  UNL1        0.0283
     26 C         138.1677  139.7060  160.2887 C.3     1  UNL1        0.1020
     27 N         137.9726  140.8258  161.2675 N.3     1  UNL1       -0.2667
     28 C         137.6381  140.6771  162.7222 C.3     1  UNL1        0.0750
     29 C         137.5366  142.0502  163.3172 C.3     1  UNL1        0.0480
     30 C         137.8082  143.0477  162.2303 C.3     1  UNL1        0.1278
     31 O         137.8101  144.5399  162.3833 O.3     1  UNL1       -0.3830
     32 C         138.0777  142.2909  160.9635 C.3     1  UNL1        0.1020
     33 H         138.0144  144.9522  161.5294 H       1  UNL1        0.2104
@<TRIPOS>BOND
     1    20    21    1
     2    21    22   ar
     3    22    23   ar
     4    23     1    1
     5     1     2    2
     6     2     3    1
     7     3     4    2
     8     4     5    1
     9     5     6    2
    10     6     7    1
    11     7    10    1
    12    10    11   ar
    13    11    12   ar
    14    12    13   ar
    15    13    14   ar
    16    14    15   ar
    17    15    16   ar
    18    16    17   ar
    19    17    18   ar
    20    18    19    1
    21     7     8    2
    22     8     9    1
    23    23    24   ar
    24    24    25   ar
    25    25    26    1
    26    26    27    1
    27    27    28    1
    28    28    29    1
    29    29    30    1
    30    30    31    1
    31    30    32    1
    32    25    21   ar
    33    32    27    1
    34     9     1    1
    35     9     5    1
    36    15    10   ar
    37    18    14   ar
    38    31    33    1
@<TRIPOS>MOLECULE
*****
 33 38 0 0 0
SMALL
GASTEIGER

@<TRIPOS>ATOM
      1 C         142.4954  139.0780  158.9244 C.2     1  UNL1        0.1253
      2 C         143.0750  140.4615  158.9291 C.2     1  UNL1        0.0701
      3 C         144.0175  140.8834  157.8411 C.2     1  UNL1        0.2372
      4 N         144.3803  139.9218  156.7485 N.2     1  UNL1       -0.0302
      5 C         143.8007  138.5383  156.7439 C.2     1  UNL1        0.4107
      6 N         143.9729  137.3811  155.8053 N.2     1  UNL1        0.0120
      7 C         143.1368  136.2439  156.3132 C.2     1  UNL1        0.3752
      8 N         142.4479  136.6984  157.5657 N.2     1  UNL1       -0.0448
      9 C         142.8582  138.1165  157.8319 C.3     1  UNL1        0.3643
     10 C         143.0117  134.8899  155.6797 C.ar    1  UNL1        0.0896
     11 C         142.2868  134.7362  154.3755 C.ar    1  UNL1        0.0078
     12 C         142.1616  133.3824  153.7420 C.ar    1  UNL1        0.0017
     13 C         142.7614  132.1822  154.4127 C.ar    1  UNL1        0.0172
     14 C         143.4863  132.3359  155.7168 C.ar    1  UNL1        0.0602
     15 C         143.6115  133.6898  156.3503 C.ar    1  UNL1        0.0247
     16 C         144.3776  133.5335  157.6305 C.ar    1  UNL1        0.0203
     17 C         144.7259  132.0832  157.7882 C.ar    1  UNL1        0.0760
     18 N         144.1751  131.3430  156.6054 N.ar    1  UNL1       -0.3240
     19 C         144.2925  129.8686  156.3553 C.3     1  UNL1        0.1305
     20 C         138.0708  138.0624  161.6212 C.3     1  UNL1        0.0537
     21 C         139.5191  138.1893  161.2520 C.ar    1  UNL1        0.0781
     22 N         140.0549  138.7033  159.9487 N.ar    1  UNL1       -0.1699
     23 N         141.5529  138.6561  160.0125 N.ar    1  UNL1       -0.2280
     24 C         141.9428  138.1129  161.3552 C.ar    1  UNL1        0.0984
     25 C         140.6859  137.8243  162.1213 C.ar    1  UNL1        0.0283
     26 C         140.6091  137.2685  163.5124 C.3     1  UNL1        0.1020
     27 N         139.7486  137.9393  164.5417 N.3     1  UNL1       -0.2667
     28 C         139.7344  139.4052  164.8594 C.3     1  UNL1        0.0750
     29 C         138.7282  139.6339  165.9480 C.3     1  UNL1        0.0480
     30 C         138.1204  138.3093  166.3032 C.3     1  UNL1        0.1278
     31 O         137.0670  138.0734  167.3446 O.3     1  UNL1       -0.3830
     32 C         138.7511  137.2620  165.4340 C.3     1  UNL1        0.1020
     33 H         136.8486  137.1289  167.3754 H       1  UNL1        0.2104
@<TRIPOS>BOND
     1    20    21    1
     2    21    22   ar
     3    22    23   ar
     4    23     1    1
     5     1     2    2
     6     2     3    1
     7     3     4    2
     8     4     5    1
     9     5     6    2
    10     6     7    1
    11     7    10    1
    12    10    11   ar
    13    11    12   ar
    14    12    13   ar
    15    13    14   ar
    16    14    15   ar
    17    15    16   ar
    18    16    17   ar
    19    17    18   ar
    20    18    19    1
    21     7     8    2
    22     8     9    1
    23    23    24   ar
    24    24    25   ar
    25    25    26    1
    26    26    27    1
    27    27    28    1
    28    28    29    1
    29    29    30    1
    30    30    31    1
    31    30    32    1
    32    25    21   ar
    33    32    27    1
    34     9     1    1
    35     9     5    1
    36    15    10   ar
    37    18    14   ar
    38    31    33    1
@<TRIPOS>MOLECULE
*****
 33 38 0 0 0
SMALL
GASTEIGER

@<TRIPOS>ATOM
      1 C         142.9809  138.8725  158.1509 C.2     1  UNL1        0.1253
      2 C         143.3044  140.2225  157.5827 C.2     1  UNL1        0.0701
      3 C         143.5609  140.3756  156.1127 C.2     1  UNL1        0.2372
      4 N         143.4940  139.1788  155.2110 N.2     1  UNL1       -0.0302
      5 C         143.1705  137.8288  155.7792 C.2     1  UNL1        0.4107
      6 N         143.0353  136.4777  155.1419 N.2     1  UNL1        0.0120
      7 C         142.6953  135.4895  156.2180 C.2     1  UNL1        0.3752
      8 N         142.6202  136.2299  157.5203 N.2     1  UNL1       -0.0448
      9 C         142.9139  137.6757  157.2491 C.3     1  UNL1        0.3643
     10 C         142.4698  134.0190  156.0254 C.ar    1  UNL1        0.0896
     11 C         141.3471  133.5403  155.1535 C.ar    1  UNL1        0.0078
     12 C         141.1216  132.0699  154.9609 C.ar    1  UNL1        0.0017
     13 C         142.0189  131.0783  155.6402 C.ar    1  UNL1        0.0172
     14 C         143.1416  131.5570  156.5121 C.ar    1  UNL1        0.0602
     15 C         143.3671  133.0274  156.7047 C.ar    1  UNL1        0.0247
     16 C         144.5460  133.2001  157.6161 C.ar    1  UNL1        0.0203
     17 C         145.0491  131.8366  157.9867 C.ar    1  UNL1        0.0760
     18 N         144.1812  130.8210  157.3044 N.ar    1  UNL1       -0.3240
     19 C         144.3272  129.3310  157.3980 C.3     1  UNL1        0.1305
     20 C         143.6343  138.8836  163.3905 C.3     1  UNL1        0.0537
     21 C         143.0247  138.7245  162.0293 C.ar    1  UNL1        0.0781
     22 N         143.6982  139.0189  160.7217 N.ar    1  UNL1       -0.1699
     23 N         142.7244  138.7193  159.6209 N.ar    1  UNL1       -0.2280
     24 C         141.4490  138.2397  160.2480 C.ar    1  UNL1        0.0984
     25 C         141.6346  138.2429  161.7365 C.ar    1  UNL1        0.0283
     26 C         140.6100  137.8359  162.7536 C.3     1  UNL1        0.1020
     27 N         139.6360  138.8464  163.2829 N.3     1  UNL1       -0.2667
     28 C         139.5907  139.3770  164.6852 C.3     1  UNL1        0.0750
     29 C         138.4631  140.3623  164.7718 C.3     1  UNL1        0.0480
     30 C         137.8114  140.4408  163.4231 C.3     1  UNL1        0.1278
     31 O         136.6405  141.3044  163.0585 O.3     1  UNL1       -0.3830
     32 C         138.5364  139.5038  162.5029 C.3     1  UNL1        0.1020
     33 H         136.4157  141.1671  162.1249 H       1  UNL1        0.2104
@<TRIPOS>BOND
     1    20    21    1
     2    21    22   ar
     3    22    23   ar
     4    23     1    1
     5     1     2    2
     6     2     3    1
     7     3     4    2
     8     4     5    1
     9     5     6    2
    10     6     7    1
    11     7    10    1
    12    10    11   ar
    13    11    12   ar
    14    12    13   ar
    15    13    14   ar
    16    14    15   ar
    17    15    16   ar
    18    16    17   ar
    19    17    18   ar
    20    18    19    1
    21     7     8    2
    22     8     9    1
    23    23    24   ar
    24    24    25   ar
    25    25    26    1
    26    26    27    1
    27    27    28    1
    28    28    29    1
    29    29    30    1
    30    30    31    1
    31    30    32    1
    32    25    21   ar
    33    32    27    1
    34     9     1    1
    35     9     5    1
    36    15    10   ar
    37    18    14   ar
    38    31    33    1
@<TRIPOS>MOLECULE
*****
 33 38 0 0 0
SMALL
GASTEIGER

@<TRIPOS>ATOM
      1 C         142.5677  138.1634  157.3627 C.2     1  UNL1        0.1253
      2 C         142.4855  139.3160  156.4063 C.2     1  UNL1        0.0701
      3 C         142.7264  139.0946  154.9425 C.2     1  UNL1        0.2372
      4 N         143.0496  137.7205  154.4350 N.2     1  UNL1       -0.0302
      5 C         143.1317  136.5679  155.3913 C.2     1  UNL1        0.4107
      6 N         143.4287  135.1121  155.1855 N.2     1  UNL1        0.0120
      7 C         143.3713  134.4337  156.5221 C.2     1  UNL1        0.3752
      8 N         143.0388  135.4703  157.5541 N.2     1  UNL1       -0.0448
      9 C         142.8908  136.7893  156.8552 C.3     1  UNL1        0.3643
     10 C         143.6053  132.9749  156.7812 C.ar    1  UNL1        0.0896
     11 C         144.7297  132.5428  157.6751 C.ar    1  UNL1        0.0078
     12 C         144.9638  131.0841  157.9342 C.ar    1  UNL1        0.0017
     13 C         144.0733  130.0573  157.2995 C.ar    1  UNL1        0.0172
     14 C         142.9488  130.4894  156.4057 C.ar    1  UNL1        0.0602
     15 C         142.7148  131.9481  156.1466 C.ar    1  UNL1        0.0247
     16 C         141.5361  132.0723  155.2271 C.ar    1  UNL1        0.0203
     17 C         141.0416  130.6904  154.9181 C.ar    1  UNL1        0.0760
     18 N         141.9148  129.7120  155.6465 N.ar    1  UNL1       -0.3240
     19 C         141.7778  128.2185  155.6202 C.3     1  UNL1        0.1305
     20 C         140.1519  138.7968  162.0150 C.3     1  UNL1        0.0537
     21 C         141.2162  138.6759  160.9650 C.ar    1  UNL1        0.0781
     22 N         140.9884  138.4348  159.5022 N.ar    1  UNL1       -0.1699
     23 N         142.3267  138.3847  158.8266 N.ar    1  UNL1       -0.2280
     24 C         143.3817  138.5949  159.8719 C.ar    1  UNL1        0.0984
     25 C         142.6955  138.7749  161.1935 C.ar    1  UNL1        0.0283
     26 C         143.3700  139.0122  162.5122 C.3     1  UNL1        0.1020
     27 N         144.0780  140.3092  162.7698 N.3     1  UNL1       -0.2667
     28 C         145.1512  140.5400  163.7920 C.3     1  UNL1        0.0750
     29 C         145.5735  141.9766  163.7044 C.3     1  UNL1        0.0480
     30 C         144.7614  142.6338  162.6280 C.3     1  UNL1        0.1278
     31 O         144.8568  144.0694  162.2037 O.3     1  UNL1       -0.3830
     32 C         143.8370  141.6032  162.0504 C.3     1  UNL1        0.1020
     33 H         144.2230  144.2381  161.4891 H       1  UNL1        0.2104
@<TRIPOS>BOND
     1    20    21    1
     2    21    22   ar
     3    22    23   ar
     4    23     1    1
     5     1     2    2
     6     2     3    1
     7     3     4    2
     8     4     5    1
     9     5     6    2
    10     6     7    1
    11     7    10    1
    12    10    11   ar
    13    11    12   ar
    14    12    13   ar
    15    13    14   ar
    16    14    15   ar
    17    15    16   ar
    18    16    17   ar
    19    17    18   ar
    20    18    19    1
    21     7     8    2
    22     8     9    1
    23    23    24   ar
    24    24    25   ar
    25    25    26    1
    26    26    27    1
    27    27    28    1
    28    28    29    1
    29    29    30    1
    30    30    31    1
    31    30    32    1
    32    25    21   ar
    33    32    27    1
    34     9     1    1
    35     9     5    1
    36    15    10   ar
    37    18    14   ar
    38    31    33    1
@<TRIPOS>MOLECULE
*****
 33 38 0 0 0
SMALL
GASTEIGER

@<TRIPOS>ATOM
      1 C         140.1049  139.9261  166.6700 C.2     1  UNL1        0.1253
      2 C         139.0338  139.6358  167.6791 C.2     1  UNL1        0.0701
      3 C         137.8692  138.7665  167.3077 C.2     1  UNL1        0.2372
      4 N         137.7758  138.1874  165.9271 N.2     1  UNL1       -0.0302
      5 C         138.8470  138.4777  164.9180 C.2     1  UNL1        0.4107
      6 N         139.0240  138.0506  163.4911 N.2     1  UNL1        0.0120
      7 C         140.2980  138.6559  162.9806 C.2     1  UNL1        0.3752
      8 N         140.9083  139.4572  164.0921 N.2     1  UNL1       -0.0448
      9 C         140.0115  139.3471  165.2895 C.3     1  UNL1        0.3643
     10 C         140.8625  138.4892  161.6009 C.ar    1  UNL1        0.0896
     11 C         142.1865  137.8108  161.4092 C.ar    1  UNL1        0.0078
     12 C         142.7510  137.6441  160.0295 C.ar    1  UNL1        0.0017
     13 C         141.9915  138.1558  158.8416 C.ar    1  UNL1        0.0172
     14 C         140.6675  138.8341  159.0332 C.ar    1  UNL1        0.0602
     15 C         140.1030  139.0009  160.4129 C.ar    1  UNL1        0.0247
     16 C         138.7844  139.7059  160.2921 C.ar    1  UNL1        0.0203
     17 C         138.5340  139.9748  158.8379 C.ar    1  UNL1        0.0760
     18 N         139.6979  139.4361  158.0598 N.ar    1  UNL1       -0.3240
     19 C         139.8630  139.4899  156.5699 C.3     1  UNL1        0.1305
     20 C         143.7867  142.4558  169.4853 C.3     1  UNL1        0.0537
     21 C         142.9618  141.9583  168.3356 C.ar    1  UNL1        0.0781
     22 N         141.7926  141.0233  168.4287 N.ar    1  UNL1       -0.1699
     23 N         141.2695  140.7955  167.0415 N.ar    1  UNL1       -0.2280
     24 C         142.1154  141.5897  166.0909 C.ar    1  UNL1        0.0984
     25 C         143.1613  142.3084  166.8907 C.ar    1  UNL1        0.0283
     26 C         144.2208  143.2175  166.3419 C.3     1  UNL1        0.1020
     27 N         144.2780  143.4996  164.8698 N.3     1  UNL1       -0.2667
     28 C         143.7443  144.7228  164.1851 C.3     1  UNL1        0.0750
     29 C         144.0154  144.5873  162.7161 C.3     1  UNL1        0.0480
     30 C         144.7169  143.2804  162.4928 C.3     1  UNL1        0.1278
     31 O         145.1755  142.7404  161.1707 O.3     1  UNL1       -0.3830
     32 C         144.8791  142.6081  163.8240 C.3     1  UNL1        0.1020
     33 H         145.5998  141.8782  161.3031 H       1  UNL1        0.2104
@<TRIPOS>BOND
     1    20    21    1
     2    21    22   ar
     3    22    23   ar
     4    23     1    1
     5     1     2    2
     6     2     3    1
     7     3     4    2
     8     4     5    1
     9     5     6    2
    10     6     7    1
    11     7    10    1
    12    10    11   ar
    13    11    12   ar
    14    12    13   ar
    15    13    14   ar
    16    14    15   ar
    17    15    16   ar
    18    16    17   ar
    19    17    18   ar
    20    18    19    1
    21     7     8    2
    22     8     9    1
    23    23    24   ar
    24    24    25   ar
    25    25    26    1
    26    26    27    1
    27    27    28    1
    28    28    29    1
    29    29    30    1
    30    30    31    1
    31    30    32    1
    32    25    21   ar
    33    32    27    1
    34     9     1    1
    35     9     5    1
    36    15    10   ar
    37    18    14   ar
    38    31    33    1
@<TRIPOS>MOLECULE
*****
 33 38 0 0 0
SMALL
GASTEIGER

@<TRIPOS>ATOM
      1 C         139.9820  144.0632  156.8733 C.2     1  UNL1        0.1253
      2 C         140.9508  144.8973  156.0887 C.2     1  UNL1        0.0701
      3 C         141.9081  145.8053  156.8022 C.2     1  UNL1        0.2372
      4 N         141.8964  145.8792  158.3004 N.2     1  UNL1       -0.0302
      5 C         140.9276  145.0451  159.0849 C.2     1  UNL1        0.4107
      6 N         140.6850  144.9083  160.5588 N.2     1  UNL1        0.0120
      7 C         139.5778  143.9157  160.7562 C.2     1  UNL1        0.3752
      8 N         139.1361  143.4391  159.4043 N.2     1  UNL1       -0.0448
      9 C         139.9703  144.1372  158.3714 C.3     1  UNL1        0.3643
     10 C         139.0117  143.4768  162.0742 C.ar    1  UNL1        0.0896
     11 C         138.3192  144.4691  162.9608 C.ar    1  UNL1        0.0078
     12 C         137.7531  144.0303  164.2787 C.ar    1  UNL1        0.0017
     13 C         137.8795  142.5992  164.7100 C.ar    1  UNL1        0.0172
     14 C         138.5720  141.6070  163.8235 C.ar    1  UNL1        0.0602
     15 C         139.1381  142.0458  162.5056 C.ar    1  UNL1        0.0247
     16 C         139.7626  140.8507  161.8483 C.ar    1  UNL1        0.0203
     17 C         139.5825  139.6734  162.7600 C.ar    1  UNL1        0.0760
     18 N         138.8467  140.1408  163.9808 N.ar    1  UNL1       -0.3240
     19 C         138.4544  139.2910  165.1530 C.3     1  UNL1        0.1305
     20 C         137.9608  139.9139  154.3082 C.3     1  UNL1        0.0537
     21 C         138.0957  141.2479  154.9807 C.ar    1  UNL1        0.0781
     22 N         139.3423  141.7964  155.6092 N.ar    1  UNL1       -0.1699
     23 N         139.0247  143.1552  156.1597 N.ar    1  UNL1       -0.2280
     24 C         137.5818  143.4464  155.8714 C.ar    1  UNL1        0.0984
     25 C         137.0076  142.2677  155.1427 C.ar    1  UNL1        0.0283
     26 C         135.5936  142.1325  154.6606 C.3     1  UNL1        0.1020
     27 N         134.6075  141.3207  155.4471 N.3     1  UNL1       -0.2667
     28 C         133.1157  141.3561  155.2948 C.3     1  UNL1        0.0750
     29 C         132.5263  140.3883  156.2775 C.3     1  UNL1        0.0480
     30 C         133.6538  139.7546  157.0373 C.3     1  UNL1        0.1278
     31 O         133.5188  138.7254  158.1201 O.3     1  UNL1       -0.3830
     32 C         134.9401  140.3310  156.5240 C.3     1  UNL1        0.1020
     33 H         134.3992  138.4820  158.4464 H       1  UNL1        0.2104
@<TRIPOS>BOND
     1    20    21    1
     2    21    22   ar
     3    22    23   ar
     4    23     1    1
     5     1     2    2
     6     2     3    1
     7     3     4    2
     8     4     5    1
     9     5     6    2
    10     6     7    1
    11     7    10    1
    12    10    11   ar
    13    11    12   ar
    14    12    13   ar
    15    13    14   ar
    16    14    15   ar
    17    15    16   ar
    18    16    17   ar
    19    17    18   ar
    20    18    19    1
    21     7     8    2
    22     8     9    1
    23    23    24   ar
    24    24    25   ar
    25    25    26    1
    26    26    27    1
    27    27    28    1
    28    28    29    1
    29    29    30    1
    30    30    31    1
    31    30    32    1
    32    25    21   ar
    33    32    27    1
    34     9     1    1
    35     9     5    1
    36    15    10   ar
    37    18    14   ar
    38    31    33    1
@<TRIPOS>MOLECULE
*****
 33 38 0 0 0
SMALL
GASTEIGER

@<TRIPOS>ATOM
      1 C         139.6846  143.4827  162.7824 C.2     1  UNL1        0.1253
      2 C         139.6747  144.9509  163.0896 C.2     1  UNL1        0.0701
      3 C         139.7403  145.9511  161.9737 C.2     1  UNL1        0.2372
      4 N         139.8158  145.4831  160.5506 N.2     1  UNL1       -0.0302
      5 C         139.8257  144.0150  160.2433 C.2     1  UNL1        0.4107
      6 N         139.8929  143.2609  158.9484 N.2     1  UNL1        0.0120
      7 C         139.8689  141.7947  159.2640 C.2     1  UNL1        0.3752
      8 N         139.7868  141.6425  160.7540 N.2     1  UNL1       -0.0448
      9 C         139.7602  143.0148  161.3592 C.3     1  UNL1        0.3643
     10 C         139.9182  140.6768  158.2649 C.ar    1  UNL1        0.0896
     11 C         138.9028  140.6107  157.1628 C.ar    1  UNL1        0.0078
     12 C         138.9521  139.4929  156.1637 C.ar    1  UNL1        0.0017
     13 C         140.0167  138.4413  156.2668 C.ar    1  UNL1        0.0172
     14 C         141.0321  138.5075  157.3689 C.ar    1  UNL1        0.0602
     15 C         140.9828  139.6252  158.3680 C.ar    1  UNL1        0.0247
     16 C         142.1097  139.4295  159.3385 C.ar    1  UNL1        0.0203
     17 C         142.8555  138.1909  158.9393 C.ar    1  UNL1        0.0760
     18 N         142.1894  137.6210  157.7220 N.ar    1  UNL1       -0.3240
     19 C         142.6075  136.3820  156.9869 C.3     1  UNL1        0.1305
     20 C         138.1352  139.4701  165.8449 C.3     1  UNL1        0.0537
     21 C         138.9068  140.6381  165.3060 C.ar    1  UNL1        0.0781
     22 N         138.5915  141.4008  164.0535 N.ar    1  UNL1       -0.1699
     23 N         139.6190  142.4825  163.8983 N.ar    1  UNL1       -0.2280
     24 C         140.5695  142.3883  165.0549 C.ar    1  UNL1        0.0984
     25 C         140.1293  141.2484  165.9249 C.ar    1  UNL1        0.0283
     26 C         140.7948  140.7979  167.1915 C.3     1  UNL1        0.1020
     27 N         140.6515  141.6106  168.4441 N.3     1  UNL1       -0.2667
     28 C         140.4784  143.0989  168.5145 C.3     1  UNL1        0.0750
     29 C         140.3760  143.4857  169.9601 C.3     1  UNL1        0.0480
     30 C         140.4859  142.2366  170.7832 C.3     1  UNL1        0.1278
     31 O         140.4345  142.1598  172.2803 O.3     1  UNL1       -0.3830
     32 C         140.6561  141.0776  169.8462 C.3     1  UNL1        0.1020
     33 H         140.5290  141.2358  172.5601 H       1  UNL1        0.2104
@<TRIPOS>BOND
     1    20    21    1
     2    21    22   ar
     3    22    23   ar
     4    23     1    1
     5     1     2    2
     6     2     3    1
     7     3     4    2
     8     4     5    1
     9     5     6    2
    10     6     7    1
    11     7    10    1
    12    10    11   ar
    13    11    12   ar
    14    12    13   ar
    15    13    14   ar
    16    14    15   ar
    17    15    16   ar
    18    16    17   ar
    19    17    18   ar
    20    18    19    1
    21     7     8    2
    22     8     9    1
    23    23    24   ar
    24    24    25   ar
    25    25    26    1
    26    26    27    1
    27    27    28    1
    28    28    29    1
    29    29    30    1
    30    30    31    1
    31    30    32    1
    32    25    21   ar
    33    32    27    1
    34     9     1    1
    35     9     5    1
    36    15    10   ar
    37    18    14   ar
    38    31    33    1
@<TRIPOS>MOLECULE
*****
 33 38 0 0 0
SMALL
GASTEIGER

@<TRIPOS>ATOM
      1 C         140.0427  142.7219  162.9718 C.2     1  UNL1        0.1253
      2 C         139.0982  143.8103  163.3880 C.2     1  UNL1        0.0701
      3 C         138.8934  145.0043  162.5035 C.2     1  UNL1        0.2372
      4 N         139.6331  145.1099  161.2028 N.2     1  UNL1       -0.0302
      5 C         140.5776  144.0215  160.7867 C.2     1  UNL1        0.4107
      6 N         141.4391  143.8508  159.5707 N.2     1  UNL1        0.0120
      7 C         142.1764  142.5512  159.7037 C.2     1  UNL1        0.3752
      8 N         141.7705  141.9188  161.0018 N.2     1  UNL1       -0.0448
      9 C         140.7824  142.8275  161.6712 C.3     1  UNL1        0.3643
     10 C         143.1488  141.9837  158.7124 C.ar    1  UNL1        0.0896
     11 C         144.4249  142.7126  158.4121 C.ar    1  UNL1        0.0078
     12 C         145.3973  142.1452  157.4209 C.ar    1  UNL1        0.0017
     13 C         145.0935  140.8490  156.7300 C.ar    1  UNL1        0.0172
     14 C         143.8174  140.1201  157.0303 C.ar    1  UNL1        0.0602
     15 C         142.8450  140.6875  158.0215 C.ar    1  UNL1        0.0247
     16 C         141.6770  139.7507  158.1134 C.ar    1  UNL1        0.0203
     17 C         141.9275  138.6045  157.1790 C.ar    1  UNL1        0.0760
     18 N         143.2504  138.8327  156.5096 N.ar    1  UNL1       -0.3240
     19 C         143.8933  137.9317  155.4972 C.3     1  UNL1        0.1305
     20 C         139.8990  137.7988  164.8755 C.3     1  UNL1        0.0537
     21 C         140.1815  139.2649  164.7313 C.ar    1  UNL1        0.0781
     22 N         139.7511  140.1376  163.5898 N.ar    1  UNL1       -0.1699
     23 N         140.2475  141.5278  163.8563 N.ar    1  UNL1       -0.2280
     24 C         140.9847  141.5143  165.1626 C.ar    1  UNL1        0.0984
     25 C         140.9439  140.1158  165.7034 C.ar    1  UNL1        0.0283
     26 C         141.5577  139.6498  166.9903 C.3     1  UNL1        0.1020
     27 N         140.8688  139.9273  168.2935 N.3     1  UNL1       -0.2667
     28 C         139.3970  140.1451  168.4840 C.3     1  UNL1        0.0750
     29 C         139.1494  140.3882  169.9432 C.3     1  UNL1        0.0480
     30 C         140.4682  140.3207  170.6548 C.3     1  UNL1        0.1278
     31 O         140.6861  140.5055  172.1273 O.3     1  UNL1       -0.3830
     32 C         141.5308  140.0358  169.6351 C.3     1  UNL1        0.1020
     33 H         141.6304  140.4125  172.3286 H       1  UNL1        0.2104
@<TRIPOS>BOND
     1    20    21    1
     2    21    22   ar
     3    22    23   ar
     4    23     1    1
     5     1     2    2
     6     2     3    1
     7     3     4    2
     8     4     5    1
     9     5     6    2
    10     6     7    1
    11     7    10    1
    12    10    11   ar
    13    11    12   ar
    14    12    13   ar
    15    13    14   ar
    16    14    15   ar
    17    15    16   ar
    18    16    17   ar
    19    17    18   ar
    20    18    19    1
    21     7     8    2
    22     8     9    1
    23    23    24   ar
    24    24    25   ar
    25    25    26    1
    26    26    27    1
    27    27    28    1
    28    28    29    1
    29    29    30    1
    30    30    31    1
    31    30    32    1
    32    25    21   ar
    33    32    27    1
    34     9     1    1
    35     9     5    1
    36    15    10   ar
    37    18    14   ar
    38    31    33    1
