@<TRIPOS>MOLECULE
*****
 35 39 0 0 0
SMALL
GASTEIGER

@<TRIPOS>ATOM
      1 N         141.5662  140.7385  162.2058 N.pl3   1  UNL1       -0.2803
      2 H         141.4872  140.8836  161.2353 H       1  UNL1        0.1551
      3 C         140.4811  140.0149  162.9468 C.ar    1  UNL1        0.2220
      4 N         139.3988  139.1791  162.3305 N.ar    1  UNL1       -0.2104
      5 C         138.5367  138.6478  163.4370 C.ar    1  UNL1        0.1210
      6 C         139.0862  139.1552  164.7372 C.ar    1  UNL1        0.1049
      7 C         138.6475  138.9570  166.1578 C.ar    1  UNL1        0.0224
      8 C         139.4106  139.6038  167.2755 C.ar    1  UNL1        0.0226
      9 C         140.6124  140.4487  166.9726 C.ar    1  UNL1        0.1057
     10 N         141.0511  140.6469  165.5520 N.ar    1  UNL1       -0.1626
     11 N         140.2880  140.0001  164.4343 N.ar    1  UNL1       -0.1984
     12 C         141.3755  141.0955  168.0904 C.ar    1  UNL1        0.0742
     13 C         141.0606  142.5047  168.4964 C.ar    1  UNL1        0.1438
     14 F         139.9826  143.2672  167.7848 F       1  UNL1       -0.2040
     15 C         141.8238  143.1515  169.6142 C.ar    1  UNL1        0.0298
     16 C         142.9018  142.3890  170.3259 C.ar    1  UNL1        0.0046
     17 C         143.2167  140.9798  169.9198 C.ar    1  UNL1        0.0298
     18 C         142.4536  140.3330  168.8021 C.ar    1  UNL1        0.1438
     19 F         142.7685  138.9238  168.3959 F       1  UNL1       -0.2040
     20 C         142.7894  142.6389  163.4875 C.ar    1  UNL1        0.0646
     21 C         143.9949  143.1413  164.2252 C.ar    1  UNL1        0.0364
     22 C         145.1827  142.2461  164.4192 C.ar    1  UNL1        0.1002
     23 N         145.1650  140.8482  163.8753 N.ar    1  UNL1       -0.2409
     24 C         143.9595  140.3458  163.1376 C.ar    1  UNL1        0.1147
     25 C         142.7717  141.2411  162.9437 C.ar    1  UNL1        0.0834
     26 C         138.5471  144.9614  165.3872 C.3     1  UNL1        0.0018
     27 C         139.4805  144.6955  164.2434 C.3     1  UNL1        0.0212
     28 C         139.2261  145.3247  162.9057 C.3     1  UNL1        0.0189
     29 C         140.1594  145.0587  161.7620 C.3     1  UNL1        0.0709
     30 N         139.9050  145.6880  160.4245 N.3     1  UNL1       -0.3208
     31 C         141.3472  144.1634  161.9560 C.3     1  UNL1        0.1062
     32 N         141.6016  143.5342  163.2936 N.pl3   1  UNL1       -0.3051
     33 C         140.6683  143.8002  164.4373 C.3     1  UNL1        0.0909
     34 H         139.0621  146.2605  160.4729 H       1  UNL1        0.1189
     35 H         139.7801  144.9578  159.7234 H       1  UNL1        0.1189
@<TRIPOS>BOND
     1    27    26    1
     2    27    28    1
     3    28    29    1
     4    29    30    1
     5    29    31    1
     6    31    32    1
     7    32    20    1
     8    20    21   ar
     9    21    22   ar
    10    22    23   ar
    11    23    24   ar
    12    24    25   ar
    13    25     1    1
    14     1     3    1
    15     3     4   ar
    16     4     5   ar
    17     5     6   ar
    18     6     7   ar
    19     7     8   ar
    20     8     9   ar
    21     9    12    1
    22    12    13   ar
    23    13    14    1
    24    13    15   ar
    25    15    16   ar
    26    16    17   ar
    27    17    18   ar
    28    18    19    1
    29     9    10   ar
    30    10    11   ar
    31    32    33    1
    32    33    27    1
    33    25    20   ar
    34    11     3   ar
    35    11     6   ar
    36    18    12   ar
    37    30    34    1
    38    30    35    1
    39     1     2    1
@<TRIPOS>MOLECULE
*****
 35 39 0 0 0
SMALL
GASTEIGER

@<TRIPOS>ATOM
      1 N         142.4357  141.7507  161.3652 N.pl3   1  UNL1       -0.2803
      2 H         143.2677  141.7840  161.8905 H       1  UNL1        0.1551
      3 C         141.6182  140.4935  161.3341 C.ar    1  UNL1        0.2220
      4 N         141.2304  139.7241  160.1062 N.ar    1  UNL1       -0.2104
      5 C         140.4174  138.5401  160.5387 C.ar    1  UNL1        0.1210
      6 C         140.3027  138.5777  162.0338 C.ar    1  UNL1        0.1049
      7 C         139.6184  137.6685  163.0112 C.ar    1  UNL1        0.0224
      8 C         139.6762  137.9667  164.4800 C.ar    1  UNL1        0.0226
      9 C         140.4184  139.1740  164.9716 C.ar    1  UNL1        0.1057
     10 N         141.1027  140.0832  163.9943 N.ar    1  UNL1       -0.1626
     11 N         141.0448  139.7850  162.5254 N.ar    1  UNL1       -0.1984
     12 C         140.4762  139.4722  166.4406 C.ar    1  UNL1        0.0742
     13 C         141.8023  139.5672  167.1350 C.ar    1  UNL1        0.1438
     14 F         143.0708  139.3640  166.3605 F       1  UNL1       -0.2040
     15 C         141.8602  139.8654  168.6040 C.ar    1  UNL1        0.0298
     16 C         140.5917  140.0685  169.3785 C.ar    1  UNL1        0.0046
     17 C         139.2655  139.9735  168.6840 C.ar    1  UNL1        0.0298
     18 C         139.2078  139.6754  167.2151 C.ar    1  UNL1        0.1438
     19 F         137.8816  139.5804  166.5206 F       1  UNL1       -0.2040
     20 C         140.7470  143.6934  161.0124 C.ar    1  UNL1        0.0646
     21 C         140.2971  144.8999  160.2430 C.ar    1  UNL1        0.0364
     22 C         141.0858  145.3702  159.0570 C.ar    1  UNL1        0.1002
     23 N         142.3246  144.6340  158.6404 N.ar    1  UNL1       -0.2409
     24 C         142.7745  143.4276  159.4098 C.ar    1  UNL1        0.1147
     25 C         141.9857  142.9573  160.5958 C.ar    1  UNL1        0.0834
     26 C         140.1474  143.3307  166.1611 C.3     1  UNL1        0.0018
     27 C         139.6584  143.0417  164.7728 C.3     1  UNL1        0.0212
     28 C         138.3807  142.2824  164.5704 C.3     1  UNL1        0.0189
     29 C         137.8918  141.9935  163.1821 C.3     1  UNL1        0.0709
     30 N         136.6141  141.2342  162.9799 N.3     1  UNL1       -0.3208
     31 C         138.6805  142.4638  161.9961 C.3     1  UNL1        0.1062
     32 N         139.9582  143.2231  162.1984 N.pl3   1  UNL1       -0.3051
     33 C         140.4471  143.5121  163.5868 C.3     1  UNL1        0.0909
     34 H         136.2135  140.9949  163.8869 H       1  UNL1        0.1189
     35 H         136.8055  140.3797  162.4567 H       1  UNL1        0.1189
@<TRIPOS>BOND
     1    27    26    1
     2    27    28    1
     3    28    29    1
     4    29    30    1
     5    29    31    1
     6    31    32    1
     7    32    20    1
     8    20    21   ar
     9    21    22   ar
    10    22    23   ar
    11    23    24   ar
    12    24    25   ar
    13    25     1    1
    14     1     3    1
    15     3     4   ar
    16     4     5   ar
    17     5     6   ar
    18     6     7   ar
    19     7     8   ar
    20     8     9   ar
    21     9    12    1
    22    12    13   ar
    23    13    14    1
    24    13    15   ar
    25    15    16   ar
    26    16    17   ar
    27    17    18   ar
    28    18    19    1
    29     9    10   ar
    30    10    11   ar
    31    32    33    1
    32    33    27    1
    33    25    20   ar
    34    11     3   ar
    35    11     6   ar
    36    18    12   ar
    37    30    34    1
    38    30    35    1
    39     1     2    1
@<TRIPOS>MOLECULE
*****
 35 39 0 0 0
SMALL
GASTEIGER

@<TRIPOS>ATOM
      1 N         141.7595  141.6398  160.6292 N.pl3   1  UNL1       -0.2803
      2 H         142.7109  141.5155  160.4087 H       1  UNL1        0.1551
      3 C         140.8635  140.4468  160.7839 C.ar    1  UNL1        0.2220
      4 N         140.0995  139.7696  159.6850 N.ar    1  UNL1       -0.2104
      5 C         139.3379  138.6259  160.2867 C.ar    1  UNL1        0.1210
      6 C         139.6313  138.5963  161.7575 C.ar    1  UNL1        0.1049
      7 C         139.1617  137.6900  162.8566 C.ar    1  UNL1        0.0224
      8 C         139.6350  137.9091  164.2630 C.ar    1  UNL1        0.0226
      9 C         140.5778  139.0346  164.5702 C.ar    1  UNL1        0.1057
     10 N         141.0474  139.9409  163.4712 N.ar    1  UNL1       -0.1626
     11 N         140.5741  139.7217  162.0648 N.ar    1  UNL1       -0.1984
     12 C         141.0511  139.2537  165.9767 C.ar    1  UNL1        0.0742
     13 C         140.1229  139.8428  166.9972 C.ar    1  UNL1        0.1438
     14 F         138.7215  140.2129  166.6112 F       1  UNL1       -0.2040
     15 C         140.5962  140.0619  168.4036 C.ar    1  UNL1        0.0298
     16 C         141.9976  139.6918  168.7896 C.ar    1  UNL1        0.0046
     17 C         142.9258  139.1026  167.7691 C.ar    1  UNL1        0.0298
     18 C         142.4525  138.8836  166.3627 C.ar    1  UNL1        0.1438
     19 F         143.3807  138.2943  165.3421 F       1  UNL1       -0.2040
     20 C         141.6318  143.8527  161.9846 C.ar    1  UNL1        0.0646
     21 C         141.0782  145.2349  162.1657 C.ar    1  UNL1        0.0364
     22 C         140.0988  145.7867  161.1726 C.ar    1  UNL1        0.1002
     23 N         139.6730  144.9562  159.9983 N.ar    1  UNL1       -0.2409
     24 C         140.2265  143.5740  159.8173 C.ar    1  UNL1        0.1147
     25 C         141.2059  143.0222  160.8104 C.ar    1  UNL1        0.0834
     26 C         142.8469  142.5728  166.8719 C.3     1  UNL1        0.0018
     27 C         143.2188  142.6609  165.4214 C.3     1  UNL1        0.0212
     28 C         144.5700  142.1973  164.9640 C.3     1  UNL1        0.0189
     29 C         144.9418  142.2855  163.5134 C.3     1  UNL1        0.0709
     30 N         146.2931  141.8219  163.0561 N.3     1  UNL1       -0.3208
     31 C         143.9624  142.8373  162.5203 C.3     1  UNL1        0.1062
     32 N         142.6112  143.3009  162.9777 N.pl3   1  UNL1       -0.3051
     33 C         142.2394  143.2127  164.4283 C.3     1  UNL1        0.0909
     34 H         146.8242  141.4799  163.8570 H       1  UNL1        0.1189
     35 H         146.7916  142.6002  162.6248 H       1  UNL1        0.1189
@<TRIPOS>BOND
     1    27    26    1
     2    27    28    1
     3    28    29    1
     4    29    30    1
     5    29    31    1
     6    31    32    1
     7    32    20    1
     8    20    21   ar
     9    21    22   ar
    10    22    23   ar
    11    23    24   ar
    12    24    25   ar
    13    25     1    1
    14     1     3    1
    15     3     4   ar
    16     4     5   ar
    17     5     6   ar
    18     6     7   ar
    19     7     8   ar
    20     8     9   ar
    21     9    12    1
    22    12    13   ar
    23    13    14    1
    24    13    15   ar
    25    15    16   ar
    26    16    17   ar
    27    17    18   ar
    28    18    19    1
    29     9    10   ar
    30    10    11   ar
    31    32    33    1
    32    33    27    1
    33    25    20   ar
    34    11     3   ar
    35    11     6   ar
    36    18    12   ar
    37    30    34    1
    38    30    35    1
    39     1     2    1
@<TRIPOS>MOLECULE
*****
 35 39 0 0 0
SMALL
GASTEIGER

@<TRIPOS>ATOM
      1 N         142.6529  138.3583  163.0014 N.pl3   1  UNL1       -0.2803
      2 H         143.4097  138.0352  163.5419 H       1  UNL1        0.1551
      3 C         141.2549  138.2649  163.5370 C.ar    1  UNL1        0.2220
      4 N         140.0984  137.5826  162.8685 N.ar    1  UNL1       -0.2104
      5 C         138.8967  137.7335  163.7535 C.ar    1  UNL1        0.1210
      6 C         139.3106  138.5090  164.9689 C.ar    1  UNL1        0.1049
      7 C         138.5486  138.9586  166.1802 C.ar    1  UNL1        0.0224
      8 C         139.2441  139.7365  167.2577 C.ar    1  UNL1        0.0226
      9 C         140.7015  140.0650  167.1239 C.ar    1  UNL1        0.1057
     10 N         141.4635  139.6154  165.9126 N.ar    1  UNL1       -0.1626
     11 N         140.7680  138.8375  164.8351 N.ar    1  UNL1       -0.1984
     12 C         141.3970  140.8430  168.2015 C.ar    1  UNL1        0.0742
     13 C         142.4421  140.1805  169.0493 C.ar    1  UNL1        0.1438
     14 F         142.7918  138.7400  168.8196 F       1  UNL1       -0.2040
     15 C         143.1376  140.9585  170.1269 C.ar    1  UNL1        0.0298
     16 C         142.7879  142.3990  170.3565 C.ar    1  UNL1        0.0046
     17 C         141.7428  143.0614  169.5086 C.ar    1  UNL1        0.0298
     18 C         141.0473  142.2834  168.4311 C.ar    1  UNL1        0.1438
     19 F         140.0022  142.9459  167.5833 F       1  UNL1       -0.2040
     20 C         142.8150  140.4278  161.4389 C.ar    1  UNL1        0.0646
     21 C         143.0600  141.0133  160.0798 C.ar    1  UNL1        0.0364
     22 C         143.3877  140.1150  158.9241 C.ar    1  UNL1        0.1002
     23 N         143.4706  138.6312  159.1275 N.ar    1  UNL1       -0.2409
     24 C         143.2256  138.0457  160.4865 C.ar    1  UNL1        0.1147
     25 C         142.8979  138.9439  161.6423 C.ar    1  UNL1        0.0834
     26 C         144.3484  143.2199  165.5441 C.3     1  UNL1        0.0018
     27 C         143.2539  142.7221  164.6473 C.3     1  UNL1        0.0212
     28 C         141.8317  143.1225  164.9061 C.3     1  UNL1        0.0189
     29 C         140.7373  142.6246  164.0092 C.3     1  UNL1        0.0709
     30 N         139.3151  143.0251  164.2681 N.3     1  UNL1       -0.3208
     31 C         141.0650  141.7264  162.8535 C.3     1  UNL1        0.1062
     32 N         142.4872  141.3260  162.5946 N.pl3   1  UNL1       -0.3051
     33 C         143.5817  141.8238  163.4915 C.3     1  UNL1        0.0909
     34 H         139.2766  143.6326  165.0865 H       1  UNL1        0.1189
     35 H         138.7524  142.1912  164.4368 H       1  UNL1        0.1189
@<TRIPOS>BOND
     1    27    26    1
     2    27    28    1
     3    28    29    1
     4    29    30    1
     5    29    31    1
     6    31    32    1
     7    32    20    1
     8    20    21   ar
     9    21    22   ar
    10    22    23   ar
    11    23    24   ar
    12    24    25   ar
    13    25     1    1
    14     1     3    1
    15     3     4   ar
    16     4     5   ar
    17     5     6   ar
    18     6     7   ar
    19     7     8   ar
    20     8     9   ar
    21     9    12    1
    22    12    13   ar
    23    13    14    1
    24    13    15   ar
    25    15    16   ar
    26    16    17   ar
    27    17    18   ar
    28    18    19    1
    29     9    10   ar
    30    10    11   ar
    31    32    33    1
    32    33    27    1
    33    25    20   ar
    34    11     3   ar
    35    11     6   ar
    36    18    12   ar
    37    30    34    1
    38    30    35    1
    39     1     2    1
@<TRIPOS>MOLECULE
*****
 35 39 0 0 0
SMALL
GASTEIGER

@<TRIPOS>ATOM
      1 N         138.5149  139.6356  162.7810 N.pl3   1  UNL1       -0.2803
      2 H         137.7317  139.6079  163.3769 H       1  UNL1        0.1551
      3 C         139.7982  138.9805  163.1981 C.ar    1  UNL1        0.2220
      4 N         140.5692  137.9671  162.4052 N.ar    1  UNL1       -0.2104
      5 C         141.7833  137.5841  163.1984 C.ar    1  UNL1        0.1210
      6 C         141.7628  138.3608  164.4815 C.ar    1  UNL1        0.1049
      7 C         142.7027  138.3936  165.6500 C.ar    1  UNL1        0.0224
      8 C         142.4157  139.2895  166.8183 C.ar    1  UNL1        0.0226
      9 C         141.1889  140.1526  166.8181 C.ar    1  UNL1        0.1057
     10 N         140.2489  140.1197  165.6496 N.ar    1  UNL1       -0.1626
     11 N         140.5359  139.2238  164.4813 N.ar    1  UNL1       -0.1984
     12 C         140.9019  141.0485  167.9865 C.ar    1  UNL1        0.0742
     13 C         141.7920  142.2226  168.2676 C.ar    1  UNL1        0.1438
     14 F         142.9691  142.5009  167.3804 F       1  UNL1       -0.2040
     15 C         141.5051  143.1186  169.4360 C.ar    1  UNL1        0.0298
     16 C         140.3281  142.8403  170.3233 C.ar    1  UNL1        0.0046
     17 C         139.4380  141.6660  170.0421 C.ar    1  UNL1        0.0298
     18 C         139.7249  140.7702  168.8737 C.ar    1  UNL1        0.1438
     19 F         138.8348  139.5960  168.5926 F       1  UNL1       -0.2040
     20 C         138.9643  141.7241  161.3024 C.ar    1  UNL1        0.0646
     21 C         138.8742  142.4213  159.9774 C.ar    1  UNL1        0.0364
     22 C         138.2448  141.7274  158.8059 C.ar    1  UNL1        0.1002
     23 N         137.7054  140.3362  158.9595 N.ar    1  UNL1       -0.2409
     24 C         137.7955  139.6390  160.2845 C.ar    1  UNL1        0.1147
     25 C         138.4249  140.3329  161.4559 C.ar    1  UNL1        0.0834
     26 C         138.5427  144.8011  165.4682 C.3     1  UNL1        0.0018
     27 C         139.3829  143.9565  164.5568 C.3     1  UNL1        0.0212
     28 C         140.8525  143.8059  164.8167 C.3     1  UNL1        0.0189
     29 C         141.6927  142.9613  163.9052 C.3     1  UNL1        0.0709
     30 N         143.1622  142.8106  164.1653 N.3     1  UNL1       -0.3208
     31 C         141.0633  142.2673  162.7338 C.3     1  UNL1        0.1062
     32 N         139.5937  142.4180  162.4738 N.pl3   1  UNL1       -0.3051
     33 C         138.7535  143.2626  163.3853 C.3     1  UNL1        0.0909
     34 H         143.4173  143.3460  164.9952 H       1  UNL1        0.1189
     35 H         143.6869  143.1576  163.3624 H       1  UNL1        0.1189
@<TRIPOS>BOND
     1    27    26    1
     2    27    28    1
     3    28    29    1
     4    29    30    1
     5    29    31    1
     6    31    32    1
     7    32    20    1
     8    20    21   ar
     9    21    22   ar
    10    22    23   ar
    11    23    24   ar
    12    24    25   ar
    13    25     1    1
    14     1     3    1
    15     3     4   ar
    16     4     5   ar
    17     5     6   ar
    18     6     7   ar
    19     7     8   ar
    20     8     9   ar
    21     9    12    1
    22    12    13   ar
    23    13    14    1
    24    13    15   ar
    25    15    16   ar
    26    16    17   ar
    27    17    18   ar
    28    18    19    1
    29     9    10   ar
    30    10    11   ar
    31    32    33    1
    32    33    27    1
    33    25    20   ar
    34    11     3   ar
    35    11     6   ar
    36    18    12   ar
    37    30    34    1
    38    30    35    1
    39     1     2    1
@<TRIPOS>MOLECULE
*****
 35 39 0 0 0
SMALL
GASTEIGER

@<TRIPOS>ATOM
      1 N         140.2530  139.2941  162.2612 N.pl3   1  UNL1       -0.2803
      2 H         140.0128  138.5627  162.8749 H       1  UNL1        0.1551
      3 C         139.9140  140.7119  162.6150 C.ar    1  UNL1        0.2220
      4 N         139.3245  141.7347  161.6896 N.ar    1  UNL1       -0.2104
      5 C         139.1512  143.0106  162.4590 C.ar    1  UNL1        0.1210
      6 C         139.6335  142.7763  163.8599 C.ar    1  UNL1        0.1049
      7 C         139.7044  143.6732  165.0601 C.ar    1  UNL1        0.0224
      8 C         140.2467  143.1492  166.3568 C.ar    1  UNL1        0.0226
      9 C         140.7181  141.7285  166.4532 C.ar    1  UNL1        0.1057
     10 N         140.6473  140.8317  165.2529 N.ar    1  UNL1       -0.1626
     11 N         140.1050  141.3556  163.9563 N.ar    1  UNL1       -0.1984
     12 C         141.2605  141.2046  167.7500 C.ar    1  UNL1        0.0742
     13 C         142.6227  141.6239  168.2172 C.ar    1  UNL1        0.1438
     14 F         143.4428  142.5671  167.3877 F       1  UNL1       -0.2040
     15 C         143.1651  141.1000  169.5139 C.ar    1  UNL1        0.0298
     16 C         142.3450  140.1568  170.3434 C.ar    1  UNL1        0.0046
     17 C         140.9827  139.7376  169.8761 C.ar    1  UNL1        0.0298
     18 C         140.4404  140.2615  168.5794 C.ar    1  UNL1        0.1438
     19 F         139.0781  139.8422  168.1121 F       1  UNL1       -0.2040
     20 C         142.4557  139.0397  160.9070 C.ar    1  UNL1        0.0646
     21 C         143.1604  138.7363  159.6182 C.ar    1  UNL1        0.0364
     22 C         142.3675  138.3840  158.3946 C.ar    1  UNL1        0.1002
     23 N         140.8698  138.3351  158.4598 N.ar    1  UNL1       -0.2409
     24 C         140.1650  138.6385  159.7487 C.ar    1  UNL1        0.1147
     25 C         140.9579  138.9908  160.9723 C.ar    1  UNL1        0.0834
     26 C         143.4750  138.3646  165.9573 C.3     1  UNL1        0.0018
     27 C         143.7583  139.0545  164.6558 C.3     1  UNL1        0.0212
     28 C         144.8344  140.0965  164.5778 C.3     1  UNL1        0.0189
     29 C         145.1176  140.7863  163.2763 C.3     1  UNL1        0.0709
     30 N         146.1937  141.8283  163.1984 N.3     1  UNL1       -0.3208
     31 C         144.3247  140.4340  162.0527 C.3     1  UNL1        0.1062
     32 N         143.2486  139.3919  162.1306 N.pl3   1  UNL1       -0.3051
     33 C         142.9654  138.7022  163.4322 C.3     1  UNL1        0.0909
     34 H         146.6263  141.9395  164.1154 H       1  UNL1        0.1189
     35 H         145.7866  142.7162  162.9045 H       1  UNL1        0.1189
@<TRIPOS>BOND
     1    27    26    1
     2    27    28    1
     3    28    29    1
     4    29    30    1
     5    29    31    1
     6    31    32    1
     7    32    20    1
     8    20    21   ar
     9    21    22   ar
    10    22    23   ar
    11    23    24   ar
    12    24    25   ar
    13    25     1    1
    14     1     3    1
    15     3     4   ar
    16     4     5   ar
    17     5     6   ar
    18     6     7   ar
    19     7     8   ar
    20     8     9   ar
    21     9    12    1
    22    12    13   ar
    23    13    14    1
    24    13    15   ar
    25    15    16   ar
    26    16    17   ar
    27    17    18   ar
    28    18    19    1
    29     9    10   ar
    30    10    11   ar
    31    32    33    1
    32    33    27    1
    33    25    20   ar
    34    11     3   ar
    35    11     6   ar
    36    18    12   ar
    37    30    34    1
    38    30    35    1
    39     1     2    1
@<TRIPOS>MOLECULE
*****
 35 39 0 0 0
SMALL
GASTEIGER

@<TRIPOS>ATOM
      1 N         140.8110  144.3616  161.5150 N.pl3   1  UNL1       -0.2803
      2 H         140.1942  144.7928  162.1497 H       1  UNL1        0.1551
      3 C         142.0595  143.6979  162.0159 C.ar    1  UNL1        0.2220
      4 N         143.4656  144.1399  161.7372 N.ar    1  UNL1       -0.2104
      5 C         144.3961  143.1909  162.4325 C.ar    1  UNL1        0.1210
      6 C         143.5652  142.1624  163.1408 C.ar    1  UNL1        0.1049
      7 C         143.9370  140.9810  163.9870 C.ar    1  UNL1        0.0224
      8 C         142.8647  140.1131  164.5758 C.ar    1  UNL1        0.0226
      9 C         141.4206  140.4264  164.3183 C.ar    1  UNL1        0.1057
     10 N         141.0488  141.6078  163.4721 N.ar    1  UNL1       -0.1626
     11 N         142.1211  142.4758  162.8834 N.ar    1  UNL1       -0.1984
     12 C         140.3482  139.5584  164.9071 C.ar    1  UNL1        0.0742
     13 C         139.3204  140.1535  165.8233 C.ar    1  UNL1        0.1438
     14 F         139.3648  141.6166  166.1507 F       1  UNL1       -0.2040
     15 C         138.2480  139.2854  166.4121 C.ar    1  UNL1        0.0298
     16 C         138.2036  137.8222  166.0847 C.ar    1  UNL1        0.0046
     17 C         139.2315  137.2272  165.1685 C.ar    1  UNL1        0.0298
     18 C         140.3038  138.0952  164.5797 C.ar    1  UNL1        0.1438
     19 F         141.3317  137.5001  163.6635 F       1  UNL1       -0.2040
     20 C         139.7145  143.2447  159.4412 C.ar    1  UNL1        0.0646
     21 C         139.4059  143.2514  157.9734 C.ar    1  UNL1        0.0364
     22 C         139.8851  144.3816  157.1113 C.ar    1  UNL1        0.1002
     23 N         140.6729  145.5051  157.7172 N.ar    1  UNL1       -0.2409
     24 C         140.9815  145.4984  159.1850 C.ar    1  UNL1        0.1147
     25 C         140.5024  144.3682  160.0471 C.ar    1  UNL1        0.0834
     26 C         139.8975  138.2336  160.8033 C.3     1  UNL1        0.0018
     27 C         139.3268  139.6090  160.9843 C.3     1  UNL1        0.0212
     28 C         138.2770  139.8542  162.0273 C.3     1  UNL1        0.0189
     29 C         137.7064  141.2296  162.2083 C.3     1  UNL1        0.0709
     30 N         136.6567  141.4747  163.2513 N.3     1  UNL1       -0.3208
     31 C         138.1856  142.3598  161.3462 C.3     1  UNL1        0.1062
     32 N         139.2354  142.1146  160.3032 N.pl3   1  UNL1       -0.3051
     33 C         139.8060  140.7392  160.1223 C.3     1  UNL1        0.0909
     34 H         136.4526  140.6029  163.7397 H       1  UNL1        0.1189
     35 H         135.8076  141.8208  162.8043 H       1  UNL1        0.1189
@<TRIPOS>BOND
     1    27    26    1
     2    27    28    1
     3    28    29    1
     4    29    30    1
     5    29    31    1
     6    31    32    1
     7    32    20    1
     8    20    21   ar
     9    21    22   ar
    10    22    23   ar
    11    23    24   ar
    12    24    25   ar
    13    25     1    1
    14     1     3    1
    15     3     4   ar
    16     4     5   ar
    17     5     6   ar
    18     6     7   ar
    19     7     8   ar
    20     8     9   ar
    21     9    12    1
    22    12    13   ar
    23    13    14    1
    24    13    15   ar
    25    15    16   ar
    26    16    17   ar
    27    17    18   ar
    28    18    19    1
    29     9    10   ar
    30    10    11   ar
    31    32    33    1
    32    33    27    1
    33    25    20   ar
    34    11     3   ar
    35    11     6   ar
    36    18    12   ar
    37    30    34    1
    38    30    35    1
    39     1     2    1
@<TRIPOS>MOLECULE
*****
 35 39 0 0 0
SMALL
GASTEIGER

@<TRIPOS>ATOM
      1 N         139.4560  142.8618  162.6550 N.pl3   1  UNL1       -0.2803
      2 H         138.7514  143.2854  163.1966 H       1  UNL1        0.1551
      3 C         140.9000  143.0963  162.9867 C.ar    1  UNL1        0.2220
      4 N         141.9391  143.6513  162.0581 N.ar    1  UNL1       -0.2104
      5 C         143.2396  143.7151  162.8029 C.ar    1  UNL1        0.1210
      6 C         143.0042  143.1995  164.1917 C.ar    1  UNL1        0.1049
      7 C         143.9198  143.0289  165.3675 C.ar    1  UNL1        0.0224
      8 C         143.3894  142.4758  166.6570 C.ar    1  UNL1        0.0226
      9 C         141.9434  142.0934  166.7706 C.ar    1  UNL1        0.1057
     10 N         141.0278  142.2641  165.5948 N.ar    1  UNL1       -0.1626
     11 N         141.5582  142.8171  164.3053 N.ar    1  UNL1       -0.1984
     12 C         141.4130  141.5403  168.0601 C.ar    1  UNL1        0.0742
     13 C         140.4469  142.3435  168.8797 C.ar    1  UNL1        0.1438
     14 F         140.0113  143.6997  168.4098 F       1  UNL1       -0.2040
     15 C         139.9165  141.7904  170.1692 C.ar    1  UNL1        0.0298
     16 C         140.3522  140.4342  170.6392 C.ar    1  UNL1        0.0046
     17 C         141.3183  139.6310  169.8195 C.ar    1  UNL1        0.0298
     18 C         141.8486  140.1841  168.5301 C.ar    1  UNL1        0.1438
     19 F         142.8147  139.3809  167.7104 F       1  UNL1       -0.2040
     20 C         139.1381  140.4897  161.6437 C.ar    1  UNL1        0.0646
     21 C         138.7678  139.6098  160.4868 C.ar    1  UNL1        0.0364
     22 C         138.3450  140.2218  159.1842 C.ar    1  UNL1        0.1002
     23 N         138.2925  141.7137  159.0385 N.ar    1  UNL1       -0.2409
     24 C         138.6628  142.5937  160.1955 C.ar    1  UNL1        0.1147
     25 C         139.0857  141.9817  161.4980 C.ar    1  UNL1        0.0834
     26 C         137.9882  138.9219  166.4624 C.3     1  UNL1        0.0018
     27 C         138.9860  139.0938  165.3556 C.3     1  UNL1        0.0212
     28 C         140.4066  138.6538  165.5514 C.3     1  UNL1        0.0189
     29 C         141.4043  138.8258  164.4447 C.3     1  UNL1        0.0709
     30 N         142.8249  138.3858  164.6405 N.3     1  UNL1       -0.3208
     31 C         140.9815  139.4377  163.1421 C.3     1  UNL1        0.1062
     32 N         139.5610  139.8777  162.9463 N.pl3   1  UNL1       -0.3051
     33 C         138.5632  139.7058  164.0531 C.3     1  UNL1        0.0909
     34 H         142.9340  137.9959  165.5767 H       1  UNL1        0.1189
     35 H         143.4470  139.1866  164.5311 H       1  UNL1        0.1189
@<TRIPOS>BOND
     1    27    26    1
     2    27    28    1
     3    28    29    1
     4    29    30    1
     5    29    31    1
     6    31    32    1
     7    32    20    1
     8    20    21   ar
     9    21    22   ar
    10    22    23   ar
    11    23    24   ar
    12    24    25   ar
    13    25     1    1
    14     1     3    1
    15     3     4   ar
    16     4     5   ar
    17     5     6   ar
    18     6     7   ar
    19     7     8   ar
    20     8     9   ar
    21     9    12    1
    22    12    13   ar
    23    13    14    1
    24    13    15   ar
    25    15    16   ar
    26    16    17   ar
    27    17    18   ar
    28    18    19    1
    29     9    10   ar
    30    10    11   ar
    31    32    33    1
    32    33    27    1
    33    25    20   ar
    34    11     3   ar
    35    11     6   ar
    36    18    12   ar
    37    30    34    1
    38    30    35    1
    39     1     2    1
@<TRIPOS>MOLECULE
*****
 35 39 0 0 0
SMALL
GASTEIGER

@<TRIPOS>ATOM
      1 N         140.5191  143.3428  163.4883 N.pl3   1  UNL1       -0.2803
      2 H         141.0463  143.7102  164.2341 H       1  UNL1        0.1551
      3 C         139.5827  142.1952  163.7255 C.ar    1  UNL1        0.2220
      4 N         138.5645  141.6731  162.7556 N.ar    1  UNL1       -0.2104
      5 C         137.8527  140.5235  163.4049 C.ar    1  UNL1        0.1210
      6 C         138.4309  140.3351  164.7761 C.ar    1  UNL1        0.1049
      7 C         138.1220  139.3563  165.8699 C.ar    1  UNL1        0.0224
      8 C         138.8822  139.4106  167.1617 C.ar    1  UNL1        0.0226
      9 C         139.9515  140.4438  167.3598 C.ar    1  UNL1        0.1057
     10 N         140.2604  141.4227  166.2661 N.ar    1  UNL1       -0.1626
     11 N         139.5001  141.3683  164.9742 N.ar    1  UNL1       -0.1984
     12 C         140.7118  140.4981  168.6518 C.ar    1  UNL1        0.0742
     13 C         139.9851  140.7494  169.9397 C.ar    1  UNL1        0.1438
     14 F         138.4981  140.9464  169.9357 F       1  UNL1       -0.2040
     15 C         140.7454  140.8037  171.2316 C.ar    1  UNL1        0.0298
     16 C         142.2324  140.6067  171.2356 C.ar    1  UNL1        0.0046
     17 C         142.9591  140.3555  169.9476 C.ar    1  UNL1        0.0298
     18 C         142.1988  140.3012  168.6558 C.ar    1  UNL1        0.1438
     19 F         142.9255  140.0499  167.3678 F       1  UNL1       -0.2040
     20 C         141.6991  143.4108  161.1746 C.ar    1  UNL1        0.0646
     21 C         141.8322  143.9986  159.8010 C.ar    1  UNL1        0.0364
     22 C         140.9183  145.1062  159.3674 C.ar    1  UNL1        0.1002
     23 N         139.8714  145.6261  160.3074 N.ar    1  UNL1       -0.2409
     24 C         139.7383  145.0383  161.6810 C.ar    1  UNL1        0.1147
     25 C         140.6522  143.9306  162.1146 C.ar    1  UNL1        0.0834
     26 C         142.6595  138.3376  161.7583 C.3     1  UNL1        0.0018
     27 C         143.0932  139.7666  161.9000 C.3     1  UNL1        0.0212
     28 C         144.4407  140.0879  162.4753 C.3     1  UNL1        0.0189
     29 C         144.8743  141.5168  162.6170 C.3     1  UNL1        0.0709
     30 N         146.2218  141.8381  163.1923 N.3     1  UNL1       -0.3208
     31 C         143.9605  142.6245  162.1835 C.3     1  UNL1        0.1062
     32 N         142.6130  142.3031  161.6082 N.pl3   1  UNL1       -0.3051
     33 C         142.1794  140.8742  161.4664 C.3     1  UNL1        0.0909
     34 H         146.7050  140.9719  163.4308 H       1  UNL1        0.1189
     35 H         146.1065  142.4053  164.0322 H       1  UNL1        0.1189
@<TRIPOS>BOND
     1    27    26    1
     2    27    28    1
     3    28    29    1
     4    29    30    1
     5    29    31    1
     6    31    32    1
     7    32    20    1
     8    20    21   ar
     9    21    22   ar
    10    22    23   ar
    11    23    24   ar
    12    24    25   ar
    13    25     1    1
    14     1     3    1
    15     3     4   ar
    16     4     5   ar
    17     5     6   ar
    18     6     7   ar
    19     7     8   ar
    20     8     9   ar
    21     9    12    1
    22    12    13   ar
    23    13    14    1
    24    13    15   ar
    25    15    16   ar
    26    16    17   ar
    27    17    18   ar
    28    18    19    1
    29     9    10   ar
    30    10    11   ar
    31    32    33    1
    32    33    27    1
    33    25    20   ar
    34    11     3   ar
    35    11     6   ar
    36    18    12   ar
    37    30    34    1
    38    30    35    1
    39     1     2    1
