@<TRIPOS>MOLECULE
*****
 25 26 0 0 0
SMALL
GASTEIGER

@<TRIPOS>ATOM
      1 C         143.9672  143.0511  163.6401 C.3     1  UNL1        0.0231
      2 C         144.0977  144.4157  163.0312 C.3     1  UNL1        0.0019
      3 C         141.3579  142.4405  167.2552 C.3     1  UNL1        0.0716
      4 C         140.7350  142.7095  165.9175 C.3     1  UNL1        0.0196
      5 C         141.6048  142.9130  164.7124 C.3     1  UNL1        0.0017
      6 C         143.0975  142.8476  164.8452 C.3     1  UNL1        0.0019
      7 C         143.7203  142.5786  166.1829 C.3     1  UNL1        0.0017
      8 C         142.8506  142.3751  167.3879 C.3     1  UNL1        0.0196
      9 C         139.0520  140.6763  169.9608 C.3     1  UNL1        0.0946
     10 C         139.9217  140.8799  168.7558 C.2     1  UNL1        0.2229
     11 O         140.2251  139.7262  167.8462 O.2     1  UNL1       -0.2751
     12 N         140.4882  142.2370  168.4602 N.am    1  UNL1       -0.3060
     13 H         140.2891  142.9941  169.0572 H       1  UNL1        0.1494
     14 C         144.7065  141.8901  163.0440 C.3     1  UNL1        0.1285
     15 N         146.1928  141.7801  163.2142 N.3     1  UNL1       -0.3150
     16 H         146.5268  140.9364  162.7485 H       1  UNL1        0.1192
     17 H         146.4186  141.7321  164.2078 H       1  UNL1        0.1192
     18 C         143.9596  140.8390  162.2777 C.2     1  UNL1        0.2397
     19 O         143.9151  140.8927  160.7794 O.2     1  UNL1       -0.2734
     20 N         143.2571  139.7341  163.0098 N.am    1  UNL1       -0.2756
     21 C         143.2139  139.5505  164.4979 C.3     1  UNL1        0.0964
     22 C         142.4047  138.3218  164.7901 C.3     1  UNL1        0.0585
     23 C         141.9477  137.7459  163.4825 C.3     1  UNL1        0.1824
     24 F         141.1109  136.5136  163.3062 F       1  UNL1       -0.2354
     25 C         142.4746  138.6188  162.3823 C.3     1  UNL1        0.1286
@<TRIPOS>BOND
     1     9    10    1
     2    10    11    2
     3    10    12   am
     4     3    12    1
     5     3     4    1
     6     4     5    1
     7     6     5    1
     8     6     1    1
     9     1     2    1
    10     1    14    1
    11    14    15    1
    12    14    18    1
    13    18    19    2
    14    18    20   am
    15    20    21    1
    16    21    22    1
    17    22    23    1
    18    23    24    1
    19    23    25    1
    20     6     7    1
    21     7     8    1
    22     8     3    1
    23    25    20    1
    24    12    13    1
    25    15    16    1
    26    15    17    1
@<TRIPOS>MOLECULE
*****
 25 26 0 0 0
SMALL
GASTEIGER

@<TRIPOS>ATOM
      1 C         138.4960  139.0955  166.6269 C.3     1  UNL1        0.0231
      2 C         137.4152  138.3950  167.3956 C.3     1  UNL1        0.0019
      3 C         138.6850  138.7066  162.1478 C.3     1  UNL1        0.0716
      4 C         139.2208  137.6095  163.0191 C.3     1  UNL1        0.0196
      5 C         139.1578  137.7392  164.5122 C.3     1  UNL1        0.0017
      6 C         138.5590  138.9659  165.1339 C.3     1  UNL1        0.0019
      7 C         138.0232  140.0630  164.2625 C.3     1  UNL1        0.0017
      8 C         138.0862  139.9333  162.7694 C.3     1  UNL1        0.0196
      9 C         140.0813  138.7731  158.4335 C.3     1  UNL1        0.0946
     10 C         140.0183  138.9027  159.9265 C.2     1  UNL1        0.2229
     11 O         141.2256  139.3582  160.6914 O.2     1  UNL1       -0.2751
     12 N         138.7480  138.5769  160.6547 N.am    1  UNL1       -0.3060
     13 H         137.9557  138.2780  160.1527 H       1  UNL1        0.1494
     14 C         139.5138  139.9258  167.3513 C.3     1  UNL1        0.1285
     15 N         139.6148  139.8528  168.8461 N.3     1  UNL1       -0.3150
     16 H         140.3538  140.4779  169.1679 H       1  UNL1        0.1192
     17 H         139.8327  138.8964  169.1259 H       1  UNL1        0.1192
     18 C         140.4307  140.8290  166.5808 C.2     1  UNL1        0.2397
     19 O         140.0401  142.2549  166.3275 O.2     1  UNL1       -0.2734
     20 N         141.7382  140.3063  166.0638 N.am    1  UNL1       -0.2756
     21 C         142.2608  138.9111  166.2380 C.3     1  UNL1        0.0964
     22 C         143.5982  138.8296  165.5636 C.3     1  UNL1        0.0585
     23 C         143.9021  140.1743  164.9725 C.3     1  UNL1        0.1824
     24 F         145.1384  140.5419  164.2068 F       1  UNL1       -0.2354
     25 C         142.7525  141.0870  165.2816 C.3     1  UNL1        0.1286
@<TRIPOS>BOND
     1     9    10    1
     2    10    11    2
     3    10    12   am
     4     3    12    1
     5     3     4    1
     6     4     5    1
     7     6     5    1
     8     6     1    1
     9     1     2    1
    10     1    14    1
    11    14    15    1
    12    14    18    1
    13    18    19    2
    14    18    20   am
    15    20    21    1
    16    21    22    1
    17    22    23    1
    18    23    24    1
    19    23    25    1
    20     6     7    1
    21     7     8    1
    22     8     3    1
    23    25    20    1
    24    12    13    1
    25    15    16    1
    26    15    17    1
@<TRIPOS>MOLECULE
*****
 25 26 0 0 0
SMALL
GASTEIGER

@<TRIPOS>ATOM
      1 C         138.7257  139.2979  163.4622 C.3     1  UNL1        0.0231
      2 C         138.6530  137.9431  162.8225 C.3     1  UNL1        0.0019
      3 C         139.9239  139.6848  167.7824 C.3     1  UNL1        0.0716
      4 C         140.9522  139.8428  166.7019 C.3     1  UNL1        0.0196
      5 C         140.5528  139.7138  165.2618 C.3     1  UNL1        0.0017
      6 C         139.1251  139.4269  164.9022 C.3     1  UNL1        0.0019
      7 C         138.0968  139.2689  165.9828 C.3     1  UNL1        0.0017
      8 C         138.4962  139.3979  167.4229 C.3     1  UNL1        0.0196
      9 C         140.8944  141.3015  171.2745 C.3     1  UNL1        0.0946
     10 C         140.4950  141.1725  169.8344 C.2     1  UNL1        0.2229
     11 O         140.2673  142.4023  169.0062 O.2     1  UNL1       -0.2751
     12 N         140.3233  139.8138  169.2225 N.am    1  UNL1       -0.3060
     13 H         140.4728  139.0067  169.7660 H       1  UNL1        0.1494
     14 C         138.3990  140.5237  162.6618 C.3     1  UNL1        0.1285
     15 N         136.9703  140.8553  162.3471 N.3     1  UNL1       -0.3150
     16 H         136.9335  141.7152  161.7997 H       1  UNL1        0.1192
     17 H         136.4516  140.9829  163.2160 H       1  UNL1        0.1192
     18 C         139.5010  141.4180  162.1760 C.2     1  UNL1        0.2397
     19 O         140.2306  141.0880  160.9076 O.2     1  UNL1       -0.2734
     20 N         139.8734  142.6423  162.9587 N.am    1  UNL1       -0.2756
     21 C         139.2368  143.0983  164.2380 C.3     1  UNL1        0.0964
     22 C         139.9177  144.3633  164.6694 C.3     1  UNL1        0.0585
     23 C         140.9752  144.6891  163.6566 C.3     1  UNL1        0.1824
     24 F         141.8979  145.8711  163.6945 F       1  UNL1       -0.2354
     25 C         140.9477  143.6255  162.5994 C.3     1  UNL1        0.1286
@<TRIPOS>BOND
     1     9    10    1
     2    10    11    2
     3    10    12   am
     4     3    12    1
     5     3     4    1
     6     4     5    1
     7     6     5    1
     8     6     1    1
     9     1     2    1
    10     1    14    1
    11    14    15    1
    12    14    18    1
    13    18    19    2
    14    18    20   am
    15    20    21    1
    16    21    22    1
    17    22    23    1
    18    23    24    1
    19    23    25    1
    20     6     7    1
    21     7     8    1
    22     8     3    1
    23    25    20    1
    24    12    13    1
    25    15    16    1
    26    15    17    1
@<TRIPOS>MOLECULE
*****
 25 26 0 0 0
SMALL
GASTEIGER

@<TRIPOS>ATOM
      1 C         142.6847  140.1276  166.8534 C.3     1  UNL1        0.0231
      2 C         142.6304  140.0603  168.3509 C.3     1  UNL1        0.0019
      3 C         141.2319  143.8094  164.7124 C.3     1  UNL1        0.0716
      4 C         142.6950  143.4793  164.7283 C.3     1  UNL1        0.0196
      5 C         143.1793  142.2520  165.4419 C.3     1  UNL1        0.0017
      6 C         142.2004  141.3549  166.1397 C.3     1  UNL1        0.0019
      7 C         140.7373  141.6850  166.1239 C.3     1  UNL1        0.0017
      8 C         140.2531  142.9123  165.4102 C.3     1  UNL1        0.0196
      9 C         139.8658  146.1840  161.8410 C.3     1  UNL1        0.0946
     10 C         140.3501  144.9567  162.5546 C.2     1  UNL1        0.2229
     11 O         140.4368  143.6495  161.8241 O.2     1  UNL1       -0.2751
     12 N         140.7476  145.0367  163.9987 N.am    1  UNL1       -0.3060
     13 H         140.6907  145.8946  164.4782 H       1  UNL1        0.1494
     14 C         143.2233  138.9677  166.0696 C.3     1  UNL1        0.1285
     15 N         144.0148  137.8977  166.7615 N.3     1  UNL1       -0.3150
     16 H         144.3000  137.1925  166.0820 H       1  UNL1        0.1192
     17 H         143.4399  137.4621  167.4827 H       1  UNL1        0.1192
     18 C         142.9704  138.8776  164.5938 C.2     1  UNL1        0.2397
     19 O         144.0657  139.2077  163.6236 O.2     1  UNL1       -0.2734
     20 N         141.6221  138.4574  164.0882 N.am    1  UNL1       -0.2756
     21 C         140.4361  138.0983  164.9335 C.3     1  UNL1        0.0964
     22 C         139.3041  137.7415  164.0163 C.3     1  UNL1        0.0585
     23 C         139.7905  137.8801  162.6040 C.3     1  UNL1        0.1824
     24 F         138.9856  137.6216  161.3650 F       1  UNL1       -0.2354
     25 C         141.2230  138.3225  162.6485 C.3     1  UNL1        0.1286
@<TRIPOS>BOND
     1     9    10    1
     2    10    11    2
     3    10    12   am
     4     3    12    1
     5     3     4    1
     6     4     5    1
     7     6     5    1
     8     6     1    1
     9     1     2    1
    10     1    14    1
    11    14    15    1
    12    14    18    1
    13    18    19    2
    14    18    20   am
    15    20    21    1
    16    21    22    1
    17    22    23    1
    18    23    24    1
    19    23    25    1
    20     6     7    1
    21     7     8    1
    22     8     3    1
    23    25    20    1
    24    12    13    1
    25    15    16    1
    26    15    17    1
@<TRIPOS>MOLECULE
*****
 25 26 0 0 0
SMALL
GASTEIGER

@<TRIPOS>ATOM
      1 C         138.0223  140.7832  163.5364 C.3     1  UNL1        0.0231
      2 C         137.3022  142.0579  163.2100 C.3     1  UNL1        0.0019
      3 C         139.9815  140.2715  167.5551 C.3     1  UNL1        0.0716
      4 C         138.8267  139.3965  167.1669 C.3     1  UNL1        0.0196
      5 C         138.1736  139.5671  165.8273 C.3     1  UNL1        0.0017
      6 C         138.6754  140.6126  164.8760 C.3     1  UNL1        0.0019
      7 C         139.8303  141.4875  165.2642 C.3     1  UNL1        0.0017
      8 C         140.4833  141.3170  166.6037 C.3     1  UNL1        0.0196
      9 C         142.6856  139.3938  170.3242 C.3     1  UNL1        0.0946
     10 C         142.0325  139.5644  168.9846 C.2     1  UNL1        0.2229
     11 O         142.7773  139.1985  167.7351 O.2     1  UNL1       -0.2751
     12 N         140.6346  140.1009  168.8946 N.am    1  UNL1       -0.3060
     13 H         140.1458  140.3410  169.7148 H       1  UNL1        0.1494
     14 C         138.0894  139.6792  162.5233 C.3     1  UNL1        0.1285
     15 N         137.1636  139.6870  161.3430 N.3     1  UNL1       -0.3150
     16 H         137.3461  138.8685  160.7623 H       1  UNL1        0.1192
     17 H         137.3180  140.5336  160.7955 H       1  UNL1        0.1192
     18 C         139.0822  138.5672  162.6904 C.2     1  UNL1        0.2397
     19 O         138.6470  137.2539  163.2699 O.2     1  UNL1       -0.2734
     20 N         140.5103  138.7686  162.2779 N.am    1  UNL1       -0.2756
     21 C         141.0893  140.0197  161.6868 C.3     1  UNL1        0.0964
     22 C         142.5469  139.7785  161.4277 C.3     1  UNL1        0.0585
     23 C         142.8688  138.3782  161.8587 C.3     1  UNL1        0.1824
     24 F         144.2133  137.7181  161.7784 F       1  UNL1       -0.2354
     25 C         141.6101  137.7541  162.3842 C.3     1  UNL1        0.1286
@<TRIPOS>BOND
     1     9    10    1
     2    10    11    2
     3    10    12   am
     4     3    12    1
     5     3     4    1
     6     4     5    1
     7     6     5    1
     8     6     1    1
     9     1     2    1
    10     1    14    1
    11    14    15    1
    12    14    18    1
    13    18    19    2
    14    18    20   am
    15    20    21    1
    16    21    22    1
    17    22    23    1
    18    23    24    1
    19    23    25    1
    20     6     7    1
    21     7     8    1
    22     8     3    1
    23    25    20    1
    24    12    13    1
    25    15    16    1
    26    15    17    1
@<TRIPOS>MOLECULE
*****
 25 26 0 0 0
SMALL
GASTEIGER

@<TRIPOS>ATOM
      1 C         144.4142  142.1738  163.7875 C.3     1  UNL1        0.0231
      2 C         145.7752  141.7025  163.3687 C.3     1  UNL1        0.0019
      3 C         142.6525  140.7822  167.6874 C.3     1  UNL1        0.0716
      4 C         143.0324  142.2221  167.5074 C.3     1  UNL1        0.0196
      5 C         143.6196  142.6860  166.2074 C.3     1  UNL1        0.0017
      6 C         143.8270  141.7100  165.0874 C.3     1  UNL1        0.0019
      7 C         143.4471  140.2701  165.2675 C.3     1  UNL1        0.0017
      8 C         142.8599  139.8062  166.5675 C.3     1  UNL1        0.0196
      9 C         140.0028  139.9762  170.5299 C.3     1  UNL1        0.0946
     10 C         140.5901  140.4401  169.2299 C.2     1  UNL1        0.2229
     11 O         139.7020  141.0257  168.1723 O.2     1  UNL1       -0.2751
     12 N         142.0653  140.3183  168.9874 N.am    1  UNL1       -0.3060
     13 H         142.6482  139.9340  169.6815 H       1  UNL1        0.1494
     14 C         143.6404  143.1090  162.9062 C.3     1  UNL1        0.1285
     15 N         144.2427  144.4183  162.4900 N.3     1  UNL1       -0.3150
     16 H         143.5834  144.9227  161.8974 H       1  UNL1        0.1192
     17 H         145.1039  144.2466  161.9711 H       1  UNL1        0.1192
     18 C         142.2642  142.7351  162.4412 C.2     1  UNL1        0.2397
     19 O         142.0907  141.7112  161.3588 O.2     1  UNL1       -0.2734
     20 N         141.0615  143.3851  163.0585 N.am    1  UNL1       -0.2756
     21 C         141.0784  144.4200  164.1441 C.3     1  UNL1        0.0964
     22 C         139.6580  144.7888  164.4551 C.3     1  UNL1        0.0585
     23 C         138.7633  143.9817  163.5617 C.3     1  UNL1        0.1824
     24 F         137.2644  144.0332  163.5360 F       1  UNL1       -0.2354
     25 C         139.6307  143.1142  162.6986 C.3     1  UNL1        0.1286
@<TRIPOS>BOND
     1     9    10    1
     2    10    11    2
     3    10    12   am
     4     3    12    1
     5     3     4    1
     6     4     5    1
     7     6     5    1
     8     6     1    1
     9     1     2    1
    10     1    14    1
    11    14    15    1
    12    14    18    1
    13    18    19    2
    14    18    20   am
    15    20    21    1
    16    21    22    1
    17    22    23    1
    18    23    24    1
    19    23    25    1
    20     6     7    1
    21     7     8    1
    22     8     3    1
    23    25    20    1
    24    12    13    1
    25    15    16    1
    26    15    17    1
@<TRIPOS>MOLECULE
*****
 25 26 0 0 0
SMALL
GASTEIGER

@<TRIPOS>ATOM
      1 C         143.9521  142.9188  163.9281 C.3     1  UNL1        0.0231
      2 C         144.0796  144.4070  164.0654 C.3     1  UNL1        0.0019
      3 C         140.7806  140.7102  166.2332 C.3     1  UNL1        0.0716
      4 C         140.4705  142.0434  165.6199 C.3     1  UNL1        0.0196
      5 C         141.5277  142.7796  164.8515 C.3     1  UNL1        0.0017
      6 C         142.8949  142.1826  164.6965 C.3     1  UNL1        0.0019
      7 C         143.2050  140.8494  165.3098 C.3     1  UNL1        0.0017
      8 C         142.1479  140.1131  166.0782 C.3     1  UNL1        0.0196
      9 C         137.6224  138.4462  167.0395 C.3     1  UNL1        0.0946
     10 C         138.6795  139.1825  166.2711 C.2     1  UNL1        0.2229
     11 O         138.6927  139.1271  164.7721 O.2     1  UNL1       -0.2751
     12 N         139.7234  139.9740  167.0016 N.am    1  UNL1       -0.3060
     13 H         139.7148  140.0103  167.9854 H       1  UNL1        0.1494
     14 C         144.8817  142.1668  163.0225 C.3     1  UNL1        0.1285
     15 N         146.2597  141.8070  163.4935 N.3     1  UNL1       -0.3150
     16 H         146.7502  141.3019  162.7555 H       1  UNL1        0.1192
     17 H         146.1923  141.2167  164.3226 H       1  UNL1        0.1192
     18 C         144.4335  141.7746  161.6458 C.2     1  UNL1        0.2397
     19 O         144.3445  142.8087  160.5630 O.2     1  UNL1       -0.2734
     20 N         144.0742  140.3481  161.3521 N.am    1  UNL1       -0.2756
     21 C         144.1140  139.2099  162.3282 C.3     1  UNL1        0.0964
     22 C         143.6764  137.9678  161.6100 C.3     1  UNL1        0.0585
     23 C         143.3662  138.3384  160.1899 C.3     1  UNL1        0.1824
     24 F         142.8933  137.4023  159.1176 F       1  UNL1       -0.2354
     25 C         143.6121  139.8095  160.0305 C.3     1  UNL1        0.1286
@<TRIPOS>BOND
     1     9    10    1
     2    10    11    2
     3    10    12   am
     4     3    12    1
     5     3     4    1
     6     4     5    1
     7     6     5    1
     8     6     1    1
     9     1     2    1
    10     1    14    1
    11    14    15    1
    12    14    18    1
    13    18    19    2
    14    18    20   am
    15    20    21    1
    16    21    22    1
    17    22    23    1
    18    23    24    1
    19    23    25    1
    20     6     7    1
    21     7     8    1
    22     8     3    1
    23    25    20    1
    24    12    13    1
    25    15    16    1
    26    15    17    1
@<TRIPOS>MOLECULE
*****
 25 26 0 0 0
SMALL
GASTEIGER

@<TRIPOS>ATOM
      1 C         142.6980  141.5588  167.4913 C.3     1  UNL1        0.0231
      2 C         142.9331  142.1966  168.8284 C.3     1  UNL1        0.0019
      3 C         142.0945  144.1291  163.8472 C.3     1  UNL1        0.0716
      4 C         140.9152  143.7144  164.6762 C.3     1  UNL1        0.0196
      5 C         141.1164  142.8576  165.8909 C.3     1  UNL1        0.0017
      6 C         142.4968  142.4155  166.2766 C.3     1  UNL1        0.0019
      7 C         143.6761  142.8302  165.4476 C.3     1  UNL1        0.0017
      8 C         143.4750  143.6869  164.2329 C.3     1  UNL1        0.0196
      9 C         141.1562  145.2380  160.1540 C.3     1  UNL1        0.0946
     10 C         141.3574  144.3813  161.3687 C.2     1  UNL1        0.2229
     11 O         141.0226  142.9199  161.3196 O.2     1  UNL1       -0.2751
     12 N         141.8933  144.9858  162.6325 N.am    1  UNL1       -0.3060
     13 H         142.1131  145.9449  162.6648 H       1  UNL1        0.1494
     14 C         142.6641  140.0642  167.3689 C.3     1  UNL1        0.1285
     15 N         142.8752  139.2073  168.5819 N.3     1  UNL1       -0.3150
     16 H         142.8199  138.2238  168.3172 H       1  UNL1        0.1192
     17 H         142.1550  139.4143  169.2739 H       1  UNL1        0.1192
     18 C         142.4191  139.4264  166.0335 C.2     1  UNL1        0.2397
     19 O         143.5758  139.0861  165.1413 O.2     1  UNL1       -0.2734
     20 N         141.0172  139.1289  165.5904 N.am    1  UNL1       -0.2756
     21 C         139.7674  139.4108  166.3704 C.3     1  UNL1        0.0964
     22 C         138.5968  138.9534  165.5515 C.3     1  UNL1        0.0585
     23 C         139.1232  138.3887  164.2654 C.3     1  UNL1        0.1824
     24 F         138.2985  137.8160  163.1509 F       1  UNL1       -0.2354
     25 C         140.6191  138.4971  164.2895 C.3     1  UNL1        0.1286
@<TRIPOS>BOND
     1     9    10    1
     2    10    11    2
     3    10    12   am
     4     3    12    1
     5     3     4    1
     6     4     5    1
     7     6     5    1
     8     6     1    1
     9     1     2    1
    10     1    14    1
    11    14    15    1
    12    14    18    1
    13    18    19    2
    14    18    20   am
    15    20    21    1
    16    21    22    1
    17    22    23    1
    18    23    24    1
    19    23    25    1
    20     6     7    1
    21     7     8    1
    22     8     3    1
    23    25    20    1
    24    12    13    1
    25    15    16    1
    26    15    17    1
@<TRIPOS>MOLECULE
*****
 25 26 0 0 0
SMALL
GASTEIGER

@<TRIPOS>ATOM
      1 C         144.4046  140.6083  163.5600 C.3     1  UNL1        0.0231
      2 C         145.6032  141.4847  163.3480 C.3     1  UNL1        0.0019
      3 C         142.5845  140.2380  167.6588 C.3     1  UNL1        0.0716
      4 C         142.9901  139.0067  166.9042 C.3     1  UNL1        0.0196
      5 C         143.5967  139.1301  165.5380 C.3     1  UNL1        0.0017
      6 C         143.7979  140.4848  164.9262 C.3     1  UNL1        0.0019
      7 C         143.3923  141.7161  165.6808 C.3     1  UNL1        0.0017
      8 C         142.7857  141.5927  167.0471 C.3     1  UNL1        0.0196
      9 C         139.8802  140.0127  170.5547 C.3     1  UNL1        0.0946
     10 C         140.4869  140.1361  169.1884 C.2     1  UNL1        0.2229
     11 O         139.6026  140.2809  167.9854 O.2     1  UNL1       -0.2751
     12 N         141.9778  140.1146  169.0251 N.am    1  UNL1       -0.3060
     13 H         142.5582  140.0196  169.8146 H       1  UNL1        0.1494
     14 C         143.8126  139.8552  162.4057 C.3     1  UNL1        0.1285
     15 N         144.5759  138.7286  161.7746 N.3     1  UNL1       -0.3150
     16 H         144.0281  138.3328  161.0106 H       1  UNL1        0.1192
     17 H         144.7566  138.0073  162.4727 H       1  UNL1        0.1192
     18 C         142.4573  140.2287  161.8825 C.2     1  UNL1        0.2397
     19 O         142.2828  141.4842  161.0805 O.2     1  UNL1       -0.2734
     20 N         141.2765  139.3465  162.1612 N.am    1  UNL1       -0.2756
     21 C         141.2970  138.0672  162.9440 C.3     1  UNL1        0.0964
     22 C         139.9011  137.5189  162.9726 C.3     1  UNL1        0.0585
     23 C         139.0179  138.4594  162.2075 C.3     1  UNL1        0.1824
     24 F         137.5435  138.2986  161.9833 F       1  UNL1       -0.2354
     25 C         139.8680  139.5889  161.7060 C.3     1  UNL1        0.1286
@<TRIPOS>BOND
     1     9    10    1
     2    10    11    2
     3    10    12   am
     4     3    12    1
     5     3     4    1
     6     4     5    1
     7     6     5    1
     8     6     1    1
     9     1     2    1
    10     1    14    1
    11    14    15    1
    12    14    18    1
    13    18    19    2
    14    18    20   am
    15    20    21    1
    16    21    22    1
    17    22    23    1
    18    23    24    1
    19    23    25    1
    20     6     7    1
    21     7     8    1
    22     8     3    1
    23    25    20    1
    24    12    13    1
    25    15    16    1
    26    15    17    1
