@<TRIPOS>MOLECULE
*****
 32 34 0 0 0
SMALL
GASTEIGER

@<TRIPOS>ATOM
      1 C         142.3819  139.1101  164.2675 C.3     1  UNL1        0.0690
      2 C         141.2943  138.0924  164.4455 C.3     1  UNL1        0.0485
      3 C         140.9674  137.1416  163.3324 C.3     1  UNL1        0.1436
      4 O         141.7279  137.2084  162.0412 O.3     1  UNL1       -0.3537
      5 C         142.8155  138.2261  161.8632 C.3     1  UNL1        0.1436
      6 C         143.1424  139.1769  162.9764 C.3     1  UNL1        0.0485
      7 N         141.0757  140.0878  168.4613 N.3     1  UNL1       -0.2703
      8 C         140.0832  140.1307  167.3374 C.3     1  UNL1        0.0897
      9 C         140.5186  139.8048  165.9395 C.3     1  UNL1        0.0896
     10 N         141.9465  139.4360  165.6654 N.3     1  UNL1       -0.2710
     11 C         142.9389  139.3930  166.7893 C.3     1  UNL1        0.0896
     12 C         142.5035  139.7189  168.1872 C.3     1  UNL1        0.0897
     13 C         140.6403  140.4136  169.8592 C.3     1  UNL1        0.0722
     14 C         139.4929  141.3523  170.0878 C.3     1  UNL1        0.0173
     15 C         140.5094  143.7107  169.6940 C.3     1  UNL1        0.0000
     16 C         139.7516  142.7513  170.5632 C.3     1  UNL1        0.0014
     17 C         143.3182  140.2409  164.5750 C.3     1  UNL1        0.1143
     18 N         143.1811  141.5466  163.8494 N.am    1  UNL1       -0.2425
     19 C         144.4059  142.2929  163.4106 C.2     1  UNL1        0.2304
     20 O         145.7679  141.7337  163.6974 O.2     1  UNL1       -0.2745
     21 C         141.8191  142.1058  163.5625 C.ar    1  UNL1        0.1373
     22 C         141.1356  141.7876  162.2657 C.ar    1  UNL1        0.0347
     23 C         139.7736  142.3468  161.9789 C.ar    1  UNL1        0.0044
     24 C         139.0952  143.2241  162.9888 C.ar    1  UNL1        0.0232
     25 C         139.7787  143.5423  164.2856 C.ar    1  UNL1        0.1540
     26 N         141.1407  142.9831  164.5724 N.ar    1  UNL1       -0.2263
     27 C         139.1001  144.4196  165.2955 C.3     1  UNL1        0.4349
     28 F         138.4215  145.2970  166.3053 F       1  UNL1       -0.1644
     29 F         139.8017  143.6890  166.4018 F       1  UNL1       -0.1644
     30 F         138.3985  145.1503  164.1892 F       1  UNL1       -0.1644
     31 C         144.2689  143.5986  162.6850 C.3     1  UNL1        0.0857
     32 C         143.9366  144.8480  163.4454 C.3     1  UNL1        0.0101
@<TRIPOS>BOND
     1    15    16    1
     2    16    14    1
     3    14    13    1
     4    13     7    1
     5     7     8    1
     6     8     9    1
     7     9    10    1
     8    10     1    1
     9     1    17    1
    10    17    18    1
    11    18    19   am
    12    19    20    2
    13    19    31    1
    14    31    32    1
    15    18    21    1
    16    21    22   ar
    17    22    23   ar
    18    23    24   ar
    19    24    25   ar
    20    25    27    1
    21    27    28    1
    22    27    29    1
    23    27    30    1
    24    25    26   ar
    25     1     2    1
    26     2     3    1
    27     3     4    1
    28     4     5    1
    29     5     6    1
    30    10    11    1
    31    11    12    1
    32    12     7    1
    33     6     1    1
    34    26    21   ar
@<TRIPOS>MOLECULE
*****
 32 34 0 0 0
SMALL
GASTEIGER

@<TRIPOS>ATOM
      1 C         142.1532  139.0357  164.8145 C.3     1  UNL1        0.0690
      2 C         141.0262  138.0557  164.9544 C.3     1  UNL1        0.0485
      3 C         140.6595  137.1653  163.8043 C.3     1  UNL1        0.1436
      4 O         141.4197  137.2548  162.5144 O.3     1  UNL1       -0.3537
      5 C         142.5467  138.2348  162.3745 C.3     1  UNL1        0.1436
      6 C         142.9134  139.1252  163.5246 C.3     1  UNL1        0.0485
      7 N         140.8947  139.8912  169.0494 N.3     1  UNL1       -0.2703
      8 C         139.8745  139.8886  167.9498 C.3     1  UNL1        0.0897
      9 C         140.2940  139.6034  166.5382 C.3     1  UNL1        0.0896
     10 N         141.7337  139.3209  166.2261 N.3     1  UNL1       -0.2710
     11 C         142.7539  139.3235  167.3257 C.3     1  UNL1        0.0896
     12 C         142.3344  139.6087  168.7373 C.3     1  UNL1        0.0897
     13 C         140.4753  140.1764  170.4610 C.3     1  UNL1        0.0722
     14 C         140.6542  141.5513  171.0334 C.3     1  UNL1        0.0173
     15 C         140.4729  143.6655  169.5342 C.3     1  UNL1        0.0000
     16 C         139.8498  142.6978  170.4962 C.3     1  UNL1        0.0014
     17 C         143.1344  140.1147  165.1649 C.3     1  UNL1        0.1143
     18 N         142.9832  141.4860  164.5761 N.am    1  UNL1       -0.2425
     19 C         144.1752  142.1899  163.9987 C.2     1  UNL1        0.2304
     20 O         145.5185  141.5226  164.0100 O.2     1  UNL1       -0.2745
     21 C         141.6399  142.1534  164.5648 C.ar    1  UNL1        0.1373
     22 C         141.1466  142.8670  165.7886 C.ar    1  UNL1        0.0347
     23 C         139.8033  143.5343  165.7773 C.ar    1  UNL1        0.0044
     24 C         138.9533  143.4881  164.5423 C.ar    1  UNL1        0.0232
     25 C         139.4465  142.7745  163.3185 C.ar    1  UNL1        0.1540
     26 N         140.7898  142.1072  163.3298 N.ar    1  UNL1       -0.2263
     27 C         138.5964  142.7283  162.0836 C.3     1  UNL1        0.4349
     28 F         137.7464  142.6822  160.8485 F       1  UNL1       -0.1644
     29 F         137.3809  143.0305  162.9089 F       1  UNL1       -0.1644
     30 F         139.8120  142.4261  161.2581 F       1  UNL1       -0.1644
     31 C         144.0241  143.5612  163.4099 C.3     1  UNL1        0.0857
     32 C         143.9614  144.7606  164.3084 C.3     1  UNL1        0.0101
@<TRIPOS>BOND
     1    15    16    1
     2    16    14    1
     3    14    13    1
     4    13     7    1
     5     7     8    1
     6     8     9    1
     7     9    10    1
     8    10     1    1
     9     1    17    1
    10    17    18    1
    11    18    19   am
    12    19    20    2
    13    19    31    1
    14    31    32    1
    15    18    21    1
    16    21    22   ar
    17    22    23   ar
    18    23    24   ar
    19    24    25   ar
    20    25    27    1
    21    27    28    1
    22    27    29    1
    23    27    30    1
    24    25    26   ar
    25     1     2    1
    26     2     3    1
    27     3     4    1
    28     4     5    1
    29     5     6    1
    30    10    11    1
    31    11    12    1
    32    12     7    1
    33     6     1    1
    34    26    21   ar
@<TRIPOS>MOLECULE
*****
 32 34 0 0 0
SMALL
GASTEIGER

@<TRIPOS>ATOM
      1 C         143.1882  141.3412  164.5837 C.3     1  UNL1        0.0690
      2 C         143.9429  140.0558  164.7513 C.3     1  UNL1        0.0485
      3 C         144.5610  139.3880  163.5587 C.3     1  UNL1        0.1436
      4 O         144.4243  140.0056  162.1987 O.3     1  UNL1       -0.3537
      5 C         143.6696  141.2910  162.0311 C.3     1  UNL1        0.1436
      6 C         143.0515  141.9588  163.2236 C.3     1  UNL1        0.0485
      7 N         142.7603  140.7571  169.0250 N.3     1  UNL1       -0.2703
      8 C         143.0504  142.1211  168.4725 C.3     1  UNL1        0.0897
      9 C         143.1930  142.3158  166.9920 C.3     1  UNL1        0.0896
     10 N         143.0455  141.1465  166.0641 N.3     1  UNL1       -0.2710
     11 C         142.7554  139.7825  166.6167 C.3     1  UNL1        0.0896
     12 C         142.6128  139.5878  168.0971 C.3     1  UNL1        0.0897
     13 C         142.6176  140.5624  170.5055 C.3     1  UNL1        0.0722
     14 C         141.3527  140.9754  171.1978 C.3     1  UNL1        0.0173
     15 C         139.1312  140.4469  169.9586 C.3     1  UNL1        0.0000
     16 C         140.1730  141.4348  170.3934 C.3     1  UNL1        0.0014
     17 C         142.3839  142.5590  164.9303 C.3     1  UNL1        0.1143
     18 N         140.9200  142.6080  164.6067 N.am    1  UNL1       -0.2425
     19 C         140.3102  143.8732  164.0801 C.2     1  UNL1        0.2304
     20 O         141.1644  145.0894  163.8769 O.2     1  UNL1       -0.2745
     21 C         140.0659  141.3918  164.8099 C.ar    1  UNL1        0.1373
     22 C         139.5920  141.0295  166.1863 C.ar    1  UNL1        0.0347
     23 C         138.7378  139.8133  166.3894 C.ar    1  UNL1        0.0044
     24 C         138.3577  138.9594  165.2164 C.ar    1  UNL1        0.0232
     25 C         138.8316  139.3216  163.8400 C.ar    1  UNL1        0.1540
     26 N         139.6857  140.5378  163.6369 N.ar    1  UNL1       -0.2263
     27 C         138.4514  138.4676  162.6670 C.3     1  UNL1        0.4349
     28 F         138.0712  137.6134  161.4940 F       1  UNL1       -0.1644
     29 F         137.6340  139.5955  162.1106 F       1  UNL1       -0.1644
     30 F         139.2687  137.3395  163.2234 F       1  UNL1       -0.1644
     31 C         138.8464  143.9223  163.7565 C.3     1  UNL1        0.0857
     32 C         137.8584  144.3256  164.8106 C.3     1  UNL1        0.0101
@<TRIPOS>BOND
     1    15    16    1
     2    16    14    1
     3    14    13    1
     4    13     7    1
     5     7     8    1
     6     8     9    1
     7     9    10    1
     8    10     1    1
     9     1    17    1
    10    17    18    1
    11    18    19   am
    12    19    20    2
    13    19    31    1
    14    31    32    1
    15    18    21    1
    16    21    22   ar
    17    22    23   ar
    18    23    24   ar
    19    24    25   ar
    20    25    27    1
    21    27    28    1
    22    27    29    1
    23    27    30    1
    24    25    26   ar
    25     1     2    1
    26     2     3    1
    27     3     4    1
    28     4     5    1
    29     5     6    1
    30    10    11    1
    31    11    12    1
    32    12     7    1
    33     6     1    1
    34    26    21   ar
@<TRIPOS>MOLECULE
*****
 32 34 0 0 0
SMALL
GASTEIGER

@<TRIPOS>ATOM
      1 C         143.1164  141.9861  164.2660 C.3     1  UNL1        0.0690
      2 C         144.2892  141.0532  164.3311 C.3     1  UNL1        0.0485
      3 C         145.2285  140.9467  163.1664 C.3     1  UNL1        0.1436
      4 O         144.9949  141.7732  161.9366 O.3     1  UNL1       -0.3537
      5 C         143.8222  142.7061  161.8715 C.3     1  UNL1        0.1436
      6 C         142.8829  142.8126  163.0362 C.3     1  UNL1        0.0485
      7 N         142.5236  140.2720  168.3843 N.3     1  UNL1       -0.2703
      8 C         142.6617  141.7543  168.2016 C.3     1  UNL1        0.0897
      9 C         142.8593  142.3257  166.8289 C.3     1  UNL1        0.0896
     10 N         142.9188  141.4147  165.6387 N.3     1  UNL1       -0.2710
     11 C         142.7808  139.9323  165.8214 C.3     1  UNL1        0.0896
     12 C         142.5832  139.3610  167.1941 C.3     1  UNL1        0.0897
     13 C         142.3260  139.7006  169.7570 C.3     1  UNL1        0.0722
     14 C         140.9573  139.6781  170.3701 C.3     1  UNL1        0.0173
     15 C         138.4046  140.0556  170.0672 C.3     1  UNL1        0.0000
     16 C         139.8197  140.3819  169.6914 C.3     1  UNL1        0.0014
     17 C         141.8751  142.7206  164.6776 C.3     1  UNL1        0.1143
     18 N         140.5502  142.3472  164.0815 N.am    1  UNL1       -0.2425
     19 C         139.6401  143.4139  163.5488 C.2     1  UNL1        0.2304
     20 O         140.0547  144.8540  163.6123 O.2     1  UNL1       -0.2745
     21 C         140.1355  140.9070  164.0180 C.ar    1  UNL1        0.1373
     22 C         140.5197  140.0674  162.8359 C.ar    1  UNL1        0.0347
     23 C         140.1050  138.6272  162.7724 C.ar    1  UNL1        0.0044
     24 C         139.3062  138.0268  163.8911 C.ar    1  UNL1        0.0232
     25 C         138.9221  138.8665  165.0732 C.ar    1  UNL1        0.1540
     26 N         139.3368  140.3066  165.1367 N.ar    1  UNL1       -0.2263
     27 C         138.1233  138.2659  166.1918 C.3     1  UNL1        0.4349
     28 F         137.3245  137.6655  167.3105 F       1  UNL1       -0.1644
     29 F         138.4252  136.8924  165.6701 F       1  UNL1       -0.1644
     30 F         137.8214  139.6395  166.7137 F       1  UNL1       -0.1644
     31 C         138.3152  143.0405  162.9527 C.3     1  UNL1        0.0857
     32 C         138.2053  142.7647  161.4824 C.3     1  UNL1        0.0101
@<TRIPOS>BOND
     1    15    16    1
     2    16    14    1
     3    14    13    1
     4    13     7    1
     5     7     8    1
     6     8     9    1
     7     9    10    1
     8    10     1    1
     9     1    17    1
    10    17    18    1
    11    18    19   am
    12    19    20    2
    13    19    31    1
    14    31    32    1
    15    18    21    1
    16    21    22   ar
    17    22    23   ar
    18    23    24   ar
    19    24    25   ar
    20    25    27    1
    21    27    28    1
    22    27    29    1
    23    27    30    1
    24    25    26   ar
    25     1     2    1
    26     2     3    1
    27     3     4    1
    28     4     5    1
    29     5     6    1
    30    10    11    1
    31    11    12    1
    32    12     7    1
    33     6     1    1
    34    26    21   ar
@<TRIPOS>MOLECULE
*****
 32 34 0 0 0
SMALL
GASTEIGER

@<TRIPOS>ATOM
      1 C         139.4894  140.5154  161.7280 C.3     1  UNL1        0.0690
      2 C         140.0452  139.1443  161.4805 C.3     1  UNL1        0.0485
      3 C         139.1304  138.0253  161.0793 C.3     1  UNL1        0.1436
      4 O         137.6598  138.2774  160.9256 O.3     1  UNL1       -0.3537
      5 C         137.1039  139.6485  161.1730 C.3     1  UNL1        0.1436
      6 C         138.0188  140.7675  161.5743 C.3     1  UNL1        0.0485
      7 N         143.8479  141.2798  162.5457 N.3     1  UNL1       -0.2703
      8 C         143.1756  140.0731  163.1302 C.3     1  UNL1        0.0897
      9 C         141.7227  139.8183  162.8576 C.3     1  UNL1        0.0896
     10 N         140.9422  140.7702  162.0006 N.3     1  UNL1       -0.2710
     11 C         141.6146  141.9770  161.4161 C.3     1  UNL1        0.0896
     12 C         143.0674  142.2318  161.6887 C.3     1  UNL1        0.0897
     13 C         145.3008  141.5346  162.8183 C.3     1  UNL1        0.0722
     14 C         145.7194  142.1919  164.0999 C.3     1  UNL1        0.0173
     15 C         144.1518  144.1850  164.6661 C.3     1  UNL1        0.0000
     16 C         144.6902  142.8229  164.9902 C.3     1  UNL1        0.0014
     17 C         139.4382  141.9750  162.0701 C.3     1  UNL1        0.1143
     18 N         138.9596  142.4118  163.4230 N.am    1  UNL1       -0.2425
     19 C         138.1299  143.6538  163.5600 C.2     1  UNL1        0.2304
     20 O         137.7786  144.4590  162.3442 O.2     1  UNL1       -0.2745
     21 C         139.3109  141.6066  164.6388 C.ar    1  UNL1        0.1373
     22 C         140.4890  141.9962  165.4817 C.ar    1  UNL1        0.0347
     23 C         140.8403  141.1910  166.6975 C.ar    1  UNL1        0.0044
     24 C         140.0136  139.9962  167.0704 C.ar    1  UNL1        0.0232
     25 C         138.8356  139.6067  166.2275 C.ar    1  UNL1        0.1540
     26 N         138.4842  140.4119  165.0117 N.ar    1  UNL1       -0.2263
     27 C         138.0089  138.4119  166.6005 C.3     1  UNL1        0.4349
     28 F         137.1822  137.2171  166.9737 F       1  UNL1       -0.1644
     29 F         138.3699  137.7562  165.3007 F       1  UNL1       -0.1644
     30 F         137.6479  139.0676  167.9005 F       1  UNL1       -0.1644
     31 C         137.6513  144.0907  164.9128 C.3     1  UNL1        0.0857
     32 C         138.4644  145.0594  165.7193 C.3     1  UNL1        0.0101
@<TRIPOS>BOND
     1    15    16    1
     2    16    14    1
     3    14    13    1
     4    13     7    1
     5     7     8    1
     6     8     9    1
     7     9    10    1
     8    10     1    1
     9     1    17    1
    10    17    18    1
    11    18    19   am
    12    19    20    2
    13    19    31    1
    14    31    32    1
    15    18    21    1
    16    21    22   ar
    17    22    23   ar
    18    23    24   ar
    19    24    25   ar
    20    25    27    1
    21    27    28    1
    22    27    29    1
    23    27    30    1
    24    25    26   ar
    25     1     2    1
    26     2     3    1
    27     3     4    1
    28     4     5    1
    29     5     6    1
    30    10    11    1
    31    11    12    1
    32    12     7    1
    33     6     1    1
    34    26    21   ar
@<TRIPOS>MOLECULE
*****
 32 34 0 0 0
SMALL
GASTEIGER

@<TRIPOS>ATOM
      1 C         143.3295  140.4147  164.3424 C.3     1  UNL1        0.0690
      2 C         144.5162  141.2729  164.6665 C.3     1  UNL1        0.0485
      3 C         145.4828  141.6556  163.5851 C.3     1  UNL1        0.1436
      4 O         145.2626  141.1801  162.1796 O.3     1  UNL1       -0.3537
      5 C         144.0758  140.3218  161.8555 C.3     1  UNL1        0.1436
      6 C         143.1093  139.9391  162.9370 C.3     1  UNL1        0.0485
      7 N         142.6748  141.0202  168.7531 N.3     1  UNL1       -0.2703
      8 C         142.9767  142.1955  167.8714 C.3     1  UNL1        0.0897
      9 C         143.1950  141.9937  166.4012 C.3     1  UNL1        0.0896
     10 N         143.1113  140.6165  165.8126 N.3     1  UNL1       -0.2710
     11 C         142.8093  139.4412  166.6943 C.3     1  UNL1        0.0896
     12 C         142.5911  139.6431  168.1646 C.3     1  UNL1        0.0897
     13 C         142.4565  141.2221  170.2234 C.3     1  UNL1        0.0722
     14 C         141.1782  141.8339  170.7148 C.3     1  UNL1        0.0173
     15 C         139.1528  140.4738  169.8215 C.3     1  UNL1        0.0000
     16 C         139.9367  141.7515  169.8771 C.3     1  UNL1        0.0014
     17 C         142.0670  139.6265  164.5289 C.3     1  UNL1        0.1143
     18 N         140.7717  140.1431  163.9761 N.am    1  UNL1       -0.2425
     19 C         139.8468  139.2174  163.2431 C.2     1  UNL1        0.2304
     20 O         140.2170  137.7751  163.0627 O.2     1  UNL1       -0.2745
     21 C         140.4015  141.5855  164.1565 C.ar    1  UNL1        0.1373
     22 C         139.8347  142.0566  165.4629 C.ar    1  UNL1        0.0347
     23 C         139.4644  143.4990  165.6432 C.ar    1  UNL1        0.0044
     24 C         139.6611  144.4702  164.5172 C.ar    1  UNL1        0.0232
     25 C         140.2279  143.9990  163.2107 C.ar    1  UNL1        0.1540
     26 N         140.5981  142.5567  163.0304 N.ar    1  UNL1       -0.2263
     27 C         140.4245  144.9703  162.0847 C.3     1  UNL1        0.4349
     28 F         140.6212  145.9416  160.9586 F       1  UNL1       -0.1644
     29 F         139.1758  145.6949  162.4917 F       1  UNL1       -0.1644
     30 F         141.6733  144.2457  161.6777 F       1  UNL1       -0.1644
     31 C         138.5516  139.7339  162.6903 C.3     1  UNL1        0.0857
     32 C         137.7579  138.8963  161.7320 C.3     1  UNL1        0.0101
@<TRIPOS>BOND
     1    15    16    1
     2    16    14    1
     3    14    13    1
     4    13     7    1
     5     7     8    1
     6     8     9    1
     7     9    10    1
     8    10     1    1
     9     1    17    1
    10    17    18    1
    11    18    19   am
    12    19    20    2
    13    19    31    1
    14    31    32    1
    15    18    21    1
    16    21    22   ar
    17    22    23   ar
    18    23    24   ar
    19    24    25   ar
    20    25    27    1
    21    27    28    1
    22    27    29    1
    23    27    30    1
    24    25    26   ar
    25     1     2    1
    26     2     3    1
    27     3     4    1
    28     4     5    1
    29     5     6    1
    30    10    11    1
    31    11    12    1
    32    12     7    1
    33     6     1    1
    34    26    21   ar
@<TRIPOS>MOLECULE
*****
 32 34 0 0 0
SMALL
GASTEIGER

@<TRIPOS>ATOM
      1 C         139.2202  140.0240  164.6735 C.3     1  UNL1        0.0690
      2 C         139.7211  138.6216  164.4941 C.3     1  UNL1        0.0485
      3 C         139.3308  137.8356  163.2775 C.3     1  UNL1        0.1436
      4 O         138.4397  138.4521  162.2404 O.3     1  UNL1       -0.3537
      5 C         137.9389  139.8546  162.4197 C.3     1  UNL1        0.1436
      6 C         138.3291  140.6405  163.6363 C.3     1  UNL1        0.0485
      7 N         141.6669  139.5823  168.4243 N.3     1  UNL1       -0.2703
      8 C         140.2559  140.0851  168.5041 C.3     1  UNL1        0.0897
      9 C         139.4404  140.2324  167.2538 C.3     1  UNL1        0.0896
     10 N         140.0358  139.8768  165.9238 N.3     1  UNL1       -0.2710
     11 C         141.4467  139.3740  165.8440 C.3     1  UNL1        0.0896
     12 C         142.2622  139.2267  167.0943 C.3     1  UNL1        0.0897
     13 C         142.4824  139.4351  169.6746 C.3     1  UNL1        0.0722
     14 C         143.0580  140.6489  170.3419 C.3     1  UNL1        0.0173
     15 C         144.5041  142.7800  169.9995 C.3     1  UNL1        0.0000
     16 C         143.4272  141.8506  169.5236 C.3     1  UNL1        0.0014
     17 C         139.0026  141.3754  165.2871 C.3     1  UNL1        0.1143
     18 N         139.7781  142.5589  164.7891 N.am    1  UNL1       -0.2425
     19 C         139.0659  143.8369  164.4582 C.2     1  UNL1        0.2304
     20 O         137.5782  143.9314  164.6254 O.2     1  UNL1       -0.2745
     21 C         141.2657  142.4643  164.6219 C.ar    1  UNL1        0.1373
     22 C         142.1709  142.7575  165.7816 C.ar    1  UNL1        0.0347
     23 C         143.6585  142.6629  165.6144 C.ar    1  UNL1        0.0044
     24 C         144.2410  142.2753  164.2876 C.ar    1  UNL1        0.0232
     25 C         143.3358  141.9821  163.1280 C.ar    1  UNL1        0.1540
     26 N         141.8482  142.0766  163.2951 N.ar    1  UNL1       -0.2263
     27 C         143.9184  141.5944  161.8012 C.3     1  UNL1        0.4349
     28 F         144.5010  141.2068  160.4744 F       1  UNL1       -0.1644
     29 F         144.5799  140.4084  162.4381 F       1  UNL1       -0.1644
     30 F         143.2569  142.7805  161.1642 F       1  UNL1       -0.1644
     31 C         139.8413  145.0204  163.9602 C.3     1  UNL1        0.0857
     32 C         139.8739  145.3324  162.4934 C.3     1  UNL1        0.0101
@<TRIPOS>BOND
     1    15    16    1
     2    16    14    1
     3    14    13    1
     4    13     7    1
     5     7     8    1
     6     8     9    1
     7     9    10    1
     8    10     1    1
     9     1    17    1
    10    17    18    1
    11    18    19   am
    12    19    20    2
    13    19    31    1
    14    31    32    1
    15    18    21    1
    16    21    22   ar
    17    22    23   ar
    18    23    24   ar
    19    24    25   ar
    20    25    27    1
    21    27    28    1
    22    27    29    1
    23    27    30    1
    24    25    26   ar
    25     1     2    1
    26     2     3    1
    27     3     4    1
    28     4     5    1
    29     5     6    1
    30    10    11    1
    31    11    12    1
    32    12     7    1
    33     6     1    1
    34    26    21   ar
@<TRIPOS>MOLECULE
*****
 32 34 0 0 0
SMALL
GASTEIGER

@<TRIPOS>ATOM
      1 C         140.0380  139.2494  163.8718 C.3     1  UNL1        0.0690
      2 C         140.9477  138.0841  164.1262 C.3     1  UNL1        0.0485
      3 C         141.2516  137.1149  163.0225 C.3     1  UNL1        0.1436
      4 O         140.6459  137.3109  161.6643 O.3     1  UNL1       -0.3537
      5 C         139.7362  138.4762  161.4099 C.3     1  UNL1        0.1436
      6 C         139.4323  139.4454  162.5136 C.3     1  UNL1        0.0485
      7 N         141.0267  139.9611  168.2037 N.3     1  UNL1       -0.2703
      8 C         139.6000  140.0063  167.7428 C.3     1  UNL1        0.0897
      9 C         139.2705  139.7691  166.2989 C.3     1  UNL1        0.0896
     10 N         140.3676  139.4866  165.3158 N.3     1  UNL1       -0.2710
     11 C         141.7943  139.4415  165.7767 C.3     1  UNL1        0.0896
     12 C         142.1238  139.6787  167.2207 C.3     1  UNL1        0.0897
     13 C         141.3563  140.1984  169.6477 C.3     1  UNL1        0.0722
     14 C         142.7873  140.2199  170.0967 C.3     1  UNL1        0.0173
     15 C         143.5465  142.4718  169.0465 C.3     1  UNL1        0.0000
     16 C         143.5184  141.5248  170.2095 C.3     1  UNL1        0.0014
     17 C         139.2429  140.4970  164.1189 C.3     1  UNL1        0.1143
     18 N         139.5655  141.7535  163.3657 N.am    1  UNL1       -0.2425
     19 C         138.4587  142.6397  162.8764 C.2     1  UNL1        0.2304
     20 O         137.0292  142.2696  163.1402 O.2     1  UNL1       -0.2745
     21 C         140.9949  142.1236  163.1018 C.ar    1  UNL1        0.1373
     22 C         141.5607  141.9922  161.7188 C.ar    1  UNL1        0.0347
     23 C         142.9902  142.3623  161.4550 C.ar    1  UNL1        0.0044
     24 C         143.8538  142.8639  162.5741 C.ar    1  UNL1        0.0232
     25 C         143.2881  142.9953  163.9571 C.ar    1  UNL1        0.1540
     26 N         141.8586  142.6252  164.2209 N.ar    1  UNL1       -0.2263
     27 C         144.1518  143.4970  165.0761 C.3     1  UNL1        0.4349
     28 F         145.0156  143.9985  166.1953 F       1  UNL1       -0.1644
     29 F         144.1820  144.8566  164.4435 F       1  UNL1       -0.1644
     30 F         144.1217  142.1372  165.7089 F       1  UNL1       -0.1644
     31 C         138.7812  143.8962  162.1232 C.3     1  UNL1        0.0857
     32 C         139.1513  145.1438  162.8691 C.3     1  UNL1        0.0101
@<TRIPOS>BOND
     1    15    16    1
     2    16    14    1
     3    14    13    1
     4    13     7    1
     5     7     8    1
     6     8     9    1
     7     9    10    1
     8    10     1    1
     9     1    17    1
    10    17    18    1
    11    18    19   am
    12    19    20    2
    13    19    31    1
    14    31    32    1
    15    18    21    1
    16    21    22   ar
    17    22    23   ar
    18    23    24   ar
    19    24    25   ar
    20    25    27    1
    21    27    28    1
    22    27    29    1
    23    27    30    1
    24    25    26   ar
    25     1     2    1
    26     2     3    1
    27     3     4    1
    28     4     5    1
    29     5     6    1
    30    10    11    1
    31    11    12    1
    32    12     7    1
    33     6     1    1
    34    26    21   ar
@<TRIPOS>MOLECULE
*****
 32 34 0 0 0
SMALL
GASTEIGER

@<TRIPOS>ATOM
      1 C         139.0237  139.5514  164.2875 C.3     1  UNL1        0.0690
      2 C         138.2664  140.1192  165.4511 C.3     1  UNL1        0.0485
      3 C         137.8075  139.2181  166.5591 C.3     1  UNL1        0.1436
      4 O         138.1061  137.7492  166.5034 O.3     1  UNL1       -0.3537
      5 C         138.8634  137.1813  165.3398 C.3     1  UNL1        0.1436
      6 C         139.3222  138.0825  164.2319 C.3     1  UNL1        0.0485
      7 N         138.9026  143.8898  163.0989 N.3     1  UNL1       -0.2703
      8 C         138.5136  142.8304  162.1109 C.3     1  UNL1        0.0897
      9 C         138.5539  141.3842  162.5071 C.3     1  UNL1        0.0896
     10 N         138.9834  140.9975  163.8913 N.3     1  UNL1       -0.2710
     11 C         139.3724  142.0570  164.8793 C.3     1  UNL1        0.0896
     12 C         139.3320  143.5031  164.4831 C.3     1  UNL1        0.0897
     13 C         138.8622  145.3360  162.7026 C.3     1  UNL1        0.0722
     14 C         140.0347  145.9543  162.0005 C.3     1  UNL1        0.0173
     15 C         141.4362  144.7922  160.1470 C.3     1  UNL1        0.0000
     16 C         140.2811  145.6600  160.5505 C.3     1  UNL1        0.0014
     17 C         139.7671  139.4858  162.9863 C.3     1  UNL1        0.1143
     18 N         141.2649  139.4051  162.9815 N.am    1  UNL1       -0.2425
     19 C         141.9567  138.3525  162.1671 C.2     1  UNL1        0.2304
     20 O         141.1507  137.3804  161.3575 O.2     1  UNL1       -0.2745
     21 C         142.0709  140.3772  163.7911 C.ar    1  UNL1        0.1373
     22 C         142.4291  140.0545  165.2115 C.ar    1  UNL1        0.0347
     23 C         143.2351  141.0265  166.0211 C.ar    1  UNL1        0.0044
     24 C         143.6829  142.3212  165.4103 C.ar    1  UNL1        0.0232
     25 C         143.3247  142.6440  163.9899 C.ar    1  UNL1        0.1540
     26 N         142.5187  141.6719  163.1803 N.ar    1  UNL1       -0.2263
     27 C         143.7726  143.9387  163.3792 C.3     1  UNL1        0.4349
     28 F         144.2205  145.2336  162.7685 F       1  UNL1       -0.1644
     29 F         143.7766  143.2978  162.0231 F       1  UNL1       -0.1644
     30 F         143.7686  144.5798  164.7354 F       1  UNL1       -0.1644
     31 C         143.4545  138.2718  162.1623 C.3     1  UNL1        0.0857
     32 C         144.2309  138.8104  160.9974 C.3     1  UNL1        0.0101
@<TRIPOS>BOND
     1    15    16    1
     2    16    14    1
     3    14    13    1
     4    13     7    1
     5     7     8    1
     6     8     9    1
     7     9    10    1
     8    10     1    1
     9     1    17    1
    10    17    18    1
    11    18    19   am
    12    19    20    2
    13    19    31    1
    14    31    32    1
    15    18    21    1
    16    21    22   ar
    17    22    23   ar
    18    23    24   ar
    19    24    25   ar
    20    25    27    1
    21    27    28    1
    22    27    29    1
    23    27    30    1
    24    25    26   ar
    25     1     2    1
    26     2     3    1
    27     3     4    1
    28     4     5    1
    29     5     6    1
    30    10    11    1
    31    11    12    1
    32    12     7    1
    33     6     1    1
    34    26    21   ar
