@<TRIPOS>MOLECULE
*****
 32 36 0 0 0
SMALL
GASTEIGER

@<TRIPOS>ATOM
      1 C         137.3311  141.4090  162.8337 C.3     1  UNL1        0.0730
      2 N         138.2096  140.2700  163.2590 N.3     1  UNL1       -0.2724
      3 C         138.3680  138.9628  162.5406 C.3     1  UNL1        0.0724
      4 C         139.3402  138.1231  163.3150 C.3     1  UNL1        0.0214
      5 C         140.3222  137.5308  164.2819 C.3     1  UNL1        0.0072
      6 C         139.7827  138.9113  164.5121 C.3     1  UNL1        0.0350
      7 C         139.0839  140.2382  164.4775 C.3     1  UNL1        0.0761
      8 C         140.5441  139.1681  165.7786 C.ar    1  UNL1       -0.0215
      9 C         139.8425  139.7470  166.9713 C.ar    1  UNL1       -0.0043
     10 C         140.6040  140.0039  168.2380 C.ar    1  UNL1        0.0035
     11 C         142.0671  139.6818  168.3118 C.ar    1  UNL1        0.0714
     12 C         142.7688  139.1029  167.1191 C.ar    1  UNL1        0.0035
     13 C         142.0073  138.8461  165.8525 C.ar    1  UNL1       -0.0043
     14 C         142.8286  139.9386  169.5784 C.3     1  UNL1        0.4186
     15 F         143.5901  140.1954  170.8449 F       1  UNL1       -0.1659
     16 F         142.5775  138.5260  170.0158 F       1  UNL1       -0.1659
     17 F         143.0797  141.3512  169.1410 F       1  UNL1       -0.1659
     18 C         137.2283  142.6369  163.6891 C.3     1  UNL1        0.0294
     19 C         137.8315  143.9286  163.2225 C.3     1  UNL1        0.0666
     20 S         138.8932  144.5999  164.0424 S.3     1  UNL1       -0.0756
     21 C         142.2358  142.6680  164.4419 C.ar    1  UNL1        0.2029
     22 N         141.7042  142.6203  165.8437 N.ar    1  UNL1       -0.1250
     23 N         140.3874  143.3382  165.8646 N.ar    1  UNL1       -0.1220
     24 C         140.1051  143.8296  164.4758 C.ar    1  UNL1        0.1933
     25 N         141.2476  143.4153  163.5965 N.ar    1  UNL1       -0.2860
     26 C         141.3787  143.6987  162.1293 C.3     1  UNL1        0.1341
     27 C         142.5509  140.1421  162.3997 C.3     1  UNL1        0.0556
     28 C         143.6737  140.9118  163.0299 C.ar    1  UNL1        0.1001
     29 N         145.1383  140.6556  162.8321 N.ar    1  UNL1       -0.2085
     30 C         145.8987  141.6582  163.6485 C.ar    1  UNL1        0.2849
     31 O         144.9040  142.5341  164.3508 O.2     1  UNL1       -0.4283
     32 C         143.5289  142.0727  163.9685 C.ar    1  UNL1        0.1964
@<TRIPOS>BOND
     1    27    28    1
     2    28    29   ar
     3    29    30   ar
     4    30    31   ar
     5    31    32   ar
     6    32    21    1
     7    21    22   ar
     8    22    23   ar
     9    23    24   ar
    10    24    20    1
    11    20    19    1
    12    19    18    1
    13    18     1    1
    14     1     2    1
    15     2     3    1
    16     4     3    1
    17     4     5    1
    18     5     6    1
    19     6     8    1
    20     8     9   ar
    21     9    10   ar
    22    10    11   ar
    23    11    14    1
    24    14    15    1
    25    14    16    1
    26    14    17    1
    27    11    12   ar
    28    12    13   ar
    29     6     7    1
    30    24    25   ar
    31    25    26    1
    32    32    28   ar
    33    25    21   ar
    34     7     2    1
    35     6     4    1
    36    13     8   ar
@<TRIPOS>MOLECULE
*****
 32 36 0 0 0
SMALL
GASTEIGER

@<TRIPOS>ATOM
      1 C         143.8072  143.8698  163.7983 C.3     1  UNL1        0.0730
      2 N         142.3372  143.9001  164.0957 N.3     1  UNL1       -0.2724
      3 C         141.4332  145.0886  163.9536 C.3     1  UNL1        0.0724
      4 C         140.0505  144.6703  164.3575 C.3     1  UNL1        0.0214
      5 C         138.8023  143.9730  164.8110 C.3     1  UNL1        0.0072
      6 C         140.1000  143.2232  164.7493 C.3     1  UNL1        0.0350
      7 C         141.5132  142.7472  164.5875 C.3     1  UNL1        0.0761
      8 C         139.5473  141.9135  165.2282 C.ar    1  UNL1       -0.0215
      9 C         139.9823  141.3544  166.5503 C.ar    1  UNL1       -0.0043
     10 C         139.4295  140.0447  167.0292 C.ar    1  UNL1        0.0035
     11 C         138.4418  139.2942  166.1859 C.ar    1  UNL1        0.0714
     12 C         138.0068  139.8534  164.8637 C.ar    1  UNL1        0.0035
     13 C         138.5596  141.1630  164.3848 C.ar    1  UNL1       -0.0043
     14 C         137.8891  137.9845  166.6648 C.3     1  UNL1        0.4186
     15 F         137.3364  136.6749  167.1436 F       1  UNL1       -0.1659
     16 F         138.5003  137.2940  165.4817 F       1  UNL1       -0.1659
     17 F         137.2780  138.6750  167.8478 F       1  UNL1       -0.1659
     18 C         144.7182  142.9948  164.6073 C.3     1  UNL1        0.0294
     19 C         145.5837  141.9782  163.9238 C.3     1  UNL1        0.0666
     20 S         145.2493  140.5194  164.0241 S.3     1  UNL1       -0.0756
     21 C         141.7484  139.5460  162.6598 C.ar    1  UNL1        0.2029
     22 N         141.6294  139.1205  164.0932 N.ar    1  UNL1       -0.1250
     23 N         142.9263  139.4333  164.7788 N.ar    1  UNL1       -0.1220
     24 C         143.8469  140.0522  163.7690 C.ar    1  UNL1        0.1933
     25 N         143.1188  140.1218  162.4594 N.ar    1  UNL1       -0.2860
     26 C         143.6654  140.6709  161.1749 C.3     1  UNL1        0.1341
     27 C         140.1786  142.0121  161.2092 C.3     1  UNL1        0.0556
     28 C         139.9623  140.5516  160.9441 C.ar    1  UNL1        0.1001
     29 N         138.9863  139.9683  159.9657 N.ar    1  UNL1       -0.2085
     30 C         139.1047  138.4743  160.0278 C.ar    1  UNL1        0.2849
     31 O         140.1537  138.1343  161.0445 O.2     1  UNL1       -0.4283
     32 C         140.6837  139.4181  161.6108 C.ar    1  UNL1        0.1964
@<TRIPOS>BOND
     1    27    28    1
     2    28    29   ar
     3    29    30   ar
     4    30    31   ar
     5    31    32   ar
     6    32    21    1
     7    21    22   ar
     8    22    23   ar
     9    23    24   ar
    10    24    20    1
    11    20    19    1
    12    19    18    1
    13    18     1    1
    14     1     2    1
    15     2     3    1
    16     4     3    1
    17     4     5    1
    18     5     6    1
    19     6     8    1
    20     8     9   ar
    21     9    10   ar
    22    10    11   ar
    23    11    14    1
    24    14    15    1
    25    14    16    1
    26    14    17    1
    27    11    12   ar
    28    12    13   ar
    29     6     7    1
    30    24    25   ar
    31    25    26    1
    32    32    28   ar
    33    25    21   ar
    34     7     2    1
    35     6     4    1
    36    13     8   ar
@<TRIPOS>MOLECULE
*****
 32 36 0 0 0
SMALL
GASTEIGER

@<TRIPOS>ATOM
      1 C         142.3623  144.3799  161.6344 C.3     1  UNL1        0.0730
      2 N         143.2746  143.4129  162.3290 N.3     1  UNL1       -0.2724
      3 C         144.6284  142.9787  161.8505 C.3     1  UNL1        0.0724
      4 C         145.1839  142.0078  162.8499 C.3     1  UNL1        0.0214
      5 C         145.4688  141.0874  163.9995 C.3     1  UNL1        0.0072
      6 C         144.1734  141.8419  163.9460 C.3     1  UNL1        0.0350
      7 C         142.9935  142.7102  163.6241 C.3     1  UNL1        0.0761
      8 C         143.6215  141.2970  165.2299 C.ar    1  UNL1       -0.0215
      9 C         143.4349  139.8182  165.3983 C.ar    1  UNL1       -0.0043
     10 C         142.8830  139.2732  166.6822 C.ar    1  UNL1        0.0035
     11 C         142.5175  140.2071  167.7978 C.ar    1  UNL1        0.0714
     12 C         142.7041  141.6860  167.6293 C.ar    1  UNL1        0.0035
     13 C         143.2561  142.2308  166.3454 C.ar    1  UNL1       -0.0043
     14 C         141.9656  139.6622  169.0816 C.3     1  UNL1        0.4186
     15 F         141.4136  139.1173  170.3655 F       1  UNL1       -0.1659
     16 F         142.8838  138.4809  168.9750 F       1  UNL1       -0.1659
     17 F         141.0474  140.8435  169.1883 F       1  UNL1       -0.1659
     18 C         140.8755  144.2449  161.7798 C.3     1  UNL1        0.0294
     19 C         140.1262  145.1589  162.7035 C.3     1  UNL1        0.0666
     20 S         138.7474  144.7917  163.1663 S.3     1  UNL1       -0.0756
     21 C         138.0895  141.0357  163.8906 C.ar    1  UNL1        0.2029
     22 N         137.2774  141.2374  162.6457 N.ar    1  UNL1       -0.1250
     23 N         137.4250  142.6689  162.2228 N.ar    1  UNL1       -0.1220
     24 C         138.3283  143.3520  163.2064 C.ar    1  UNL1        0.1933
     25 N         138.7390  142.3426  164.2371 N.ar    1  UNL1       -0.2860
     26 C         139.6408  142.5958  165.4088 C.3     1  UNL1        0.1341
     27 C         139.3664  138.2552  162.7556 C.3     1  UNL1        0.0556
     28 C         138.8147  138.4744  164.1332 C.ar    1  UNL1        0.1001
     29 N         138.7531  137.4540  165.2308 N.ar    1  UNL1       -0.2085
     30 C         138.1281  138.1014  166.4309 C.ar    1  UNL1        0.2849
     31 O         137.8035  139.5218  166.0750 O.2     1  UNL1       -0.4283
     32 C         138.2278  139.7524  164.6549 C.ar    1  UNL1        0.1964
@<TRIPOS>BOND
     1    27    28    1
     2    28    29   ar
     3    29    30   ar
     4    30    31   ar
     5    31    32   ar
     6    32    21    1
     7    21    22   ar
     8    22    23   ar
     9    23    24   ar
    10    24    20    1
    11    20    19    1
    12    19    18    1
    13    18     1    1
    14     1     2    1
    15     2     3    1
    16     4     3    1
    17     4     5    1
    18     5     6    1
    19     6     8    1
    20     8     9   ar
    21     9    10   ar
    22    10    11   ar
    23    11    14    1
    24    14    15    1
    25    14    16    1
    26    14    17    1
    27    11    12   ar
    28    12    13   ar
    29     6     7    1
    30    24    25   ar
    31    25    26    1
    32    32    28   ar
    33    25    21   ar
    34     7     2    1
    35     6     4    1
    36    13     8   ar
@<TRIPOS>MOLECULE
*****
 32 36 0 0 0
SMALL
GASTEIGER

@<TRIPOS>ATOM
      1 C         144.4246  139.8531  161.7232 C.3     1  UNL1        0.0730
      2 N         144.3937  140.9638  162.7309 N.3     1  UNL1       -0.2724
      3 C         145.5841  141.5630  163.4194 C.3     1  UNL1        0.0724
      4 C         145.0932  142.6398  164.3410 C.3     1  UNL1        0.0214
      5 C         144.3196  143.6349  165.1542 C.3     1  UNL1        0.0072
      6 C         143.5994  142.7062  164.2221 C.3     1  UNL1        0.0350
      7 C         143.1671  141.6704  163.2270 C.3     1  UNL1        0.0761
      8 C         142.2222  143.2187  164.5233 C.ar    1  UNL1       -0.0215
      9 C         141.4804  142.7137  165.7253 C.ar    1  UNL1       -0.0043
     10 C         140.1031  143.2262  166.0265 C.ar    1  UNL1        0.0035
     11 C         139.4678  144.2435  165.1258 C.ar    1  UNL1        0.0714
     12 C         140.2097  144.7485  163.9238 C.ar    1  UNL1        0.0035
     13 C         141.5869  144.2360  163.6225 C.ar    1  UNL1       -0.0043
     14 C         138.0906  144.7560  165.4270 C.3     1  UNL1        0.4186
     15 F         136.7134  145.2684  165.7282 F       1  UNL1       -0.1659
     16 F         137.5512  143.9982  164.2502 F       1  UNL1       -0.1659
     17 F         138.6299  145.5137  166.6038 F       1  UNL1       -0.1659
     18 C         143.1980  139.0238  161.4834 C.3     1  UNL1        0.0294
     19 C         142.8026  137.9663  162.4710 C.3     1  UNL1        0.0666
     20 S         141.6775  138.2192  163.4304 S.3     1  UNL1       -0.0756
     21 C         141.7179  139.4767  167.1021 C.ar    1  UNL1        0.2029
     22 N         143.1414  139.0358  166.9310 N.ar    1  UNL1       -0.1250
     23 N         143.2995  138.5111  165.5348 N.ar    1  UNL1       -0.1220
     24 C         141.9738  138.6277  164.8429 C.ar    1  UNL1        0.1933
     25 N         140.9963  139.2244  165.8117 N.ar    1  UNL1       -0.2860
     26 C         139.5509  139.5174  165.5378 C.3     1  UNL1        0.1341
     27 C         143.0595  141.8017  168.9580 C.3     1  UNL1        0.0556
     28 C         141.7375  141.1349  169.1985 C.ar    1  UNL1        0.1001
     29 N         140.8002  141.4198  170.3344 N.ar    1  UNL1       -0.2085
     30 C         139.6042  140.5272  170.1833 C.ar    1  UNL1        0.2849
     31 O         139.8024  139.6907  168.9542 O.2     1  UNL1       -0.4283
     32 C         141.1209  140.0663  168.3456 C.ar    1  UNL1        0.1964
@<TRIPOS>BOND
     1    27    28    1
     2    28    29   ar
     3    29    30   ar
     4    30    31   ar
     5    31    32   ar
     6    32    21    1
     7    21    22   ar
     8    22    23   ar
     9    23    24   ar
    10    24    20    1
    11    20    19    1
    12    19    18    1
    13    18     1    1
    14     1     2    1
    15     2     3    1
    16     4     3    1
    17     4     5    1
    18     5     6    1
    19     6     8    1
    20     8     9   ar
    21     9    10   ar
    22    10    11   ar
    23    11    14    1
    24    14    15    1
    25    14    16    1
    26    14    17    1
    27    11    12   ar
    28    12    13   ar
    29     6     7    1
    30    24    25   ar
    31    25    26    1
    32    32    28   ar
    33    25    21   ar
    34     7     2    1
    35     6     4    1
    36    13     8   ar
@<TRIPOS>MOLECULE
*****
 32 36 0 0 0
SMALL
GASTEIGER

@<TRIPOS>ATOM
      1 C         140.2007  137.5848  162.5434 C.3     1  UNL1        0.0730
      2 N         141.4993  138.1968  162.9781 N.3     1  UNL1       -0.2724
      3 C         142.8127  138.0788  162.2633 C.3     1  UNL1        0.0724
      4 C         143.8377  138.8433  163.0474 C.3     1  UNL1        0.0214
      5 C         144.6223  139.6687  164.0237 C.3     1  UNL1        0.0072
      6 C         143.1577  139.4339  164.2470 C.3     1  UNL1        0.0350
      7 C         141.7126  139.0344  164.2041 C.3     1  UNL1        0.0761
      8 C         143.0648  140.2224  165.5196 C.ar    1  UNL1       -0.0215
      9 C         142.5470  139.5725  166.7684 C.ar    1  UNL1       -0.0043
     10 C         142.4540  140.3609  168.0411 C.ar    1  UNL1        0.0035
     11 C         142.8788  141.7993  168.0650 C.ar    1  UNL1        0.0714
     12 C         143.3966  142.4493  166.8161 C.ar    1  UNL1        0.0035
     13 C         143.4896  141.6608  165.5435 C.ar    1  UNL1       -0.0043
     14 C         142.7859  142.5878  169.3376 C.3     1  UNL1        0.4186
     15 F         142.6929  143.3763  170.6103 F       1  UNL1       -0.1659
     16 F         144.2791  142.5455  169.4729 F       1  UNL1       -0.1659
     17 F         141.2926  142.6301  169.2024 F       1  UNL1       -0.1659
     18 C         138.9046  138.1143  163.0816 C.3     1  UNL1        0.0294
     19 C         137.9032  138.7328  162.1518 C.3     1  UNL1        0.0666
     20 S         137.8092  140.2254  162.0360 S.3     1  UNL1       -0.0756
     21 C         140.9588  142.3352  162.8686 C.ar    1  UNL1        0.2029
     22 N         140.1507  142.5148  164.1194 N.ar    1  UNL1       -0.1250
     23 N         138.8725  141.7464  163.9598 N.ar    1  UNL1       -0.1220
     24 C         138.8906  141.0918  162.6103 C.ar    1  UNL1        0.1933
     25 N         140.1801  141.4557  161.9359 N.ar    1  UNL1       -0.2860
     26 C         140.6145  141.0171  160.5688 C.3     1  UNL1        0.1341
     27 C         141.8840  145.3865  163.5636 C.3     1  UNL1        0.0556
     28 C         142.7340  144.3330  162.9174 C.ar    1  UNL1        0.1001
     29 N         144.1586  144.4971  162.4773 N.ar    1  UNL1       -0.2085
     30 C         144.6138  143.1960  161.8858 C.ar    1  UNL1        0.2849
     31 O         143.4706  142.2278  161.9604 O.2     1  UNL1       -0.4283
     32 C         142.3089  142.9305  162.5980 C.ar    1  UNL1        0.1964
@<TRIPOS>BOND
     1    27    28    1
     2    28    29   ar
     3    29    30   ar
     4    30    31   ar
     5    31    32   ar
     6    32    21    1
     7    21    22   ar
     8    22    23   ar
     9    23    24   ar
    10    24    20    1
    11    20    19    1
    12    19    18    1
    13    18     1    1
    14     1     2    1
    15     2     3    1
    16     4     3    1
    17     4     5    1
    18     5     6    1
    19     6     8    1
    20     8     9   ar
    21     9    10   ar
    22    10    11   ar
    23    11    14    1
    24    14    15    1
    25    14    16    1
    26    14    17    1
    27    11    12   ar
    28    12    13   ar
    29     6     7    1
    30    24    25   ar
    31    25    26    1
    32    32    28   ar
    33    25    21   ar
    34     7     2    1
    35     6     4    1
    36    13     8   ar
@<TRIPOS>MOLECULE
*****
 32 36 0 0 0
SMALL
GASTEIGER

@<TRIPOS>ATOM
      1 C         145.5445  141.8580  163.2268 C.3     1  UNL1        0.0730
      2 N         144.6997  140.9161  164.0325 N.3     1  UNL1       -0.2724
      3 C         144.5979  139.4329  163.8334 C.3     1  UNL1        0.0724
      4 C         143.6437  138.8922  164.8566 C.3     1  UNL1        0.0214
      5 C         142.6681  138.6510  165.9701 C.3     1  UNL1        0.0072
      6 C         143.1556  140.0412  165.6882 C.3     1  UNL1        0.0350
      7 C         143.8083  141.2921  165.1788 C.3     1  UNL1        0.0761
      8 C         142.3662  140.7078  166.7755 C.ar    1  UNL1       -0.0215
      9 C         141.0292  140.1583  167.1763 C.ar    1  UNL1       -0.0043
     10 C         140.2397  140.8249  168.2637 C.ar    1  UNL1        0.0035
     11 C         140.7871  142.0410  168.9503 C.ar    1  UNL1        0.0714
     12 C         142.1242  142.5905  168.5495 C.ar    1  UNL1        0.0035
     13 C         142.9136  141.9239  167.4621 C.ar    1  UNL1       -0.0043
     14 C         139.9977  142.7076  170.0376 C.3     1  UNL1        0.4186
     15 F         139.2082  143.3743  171.1250 F       1  UNL1       -0.1659
     16 F         140.8740  143.9203  169.9304 F       1  UNL1       -0.1659
     17 F         139.1214  141.4950  170.1448 F       1  UNL1       -0.1659
     18 C         144.9015  142.7774  162.2312 C.3     1  UNL1        0.0294
     19 C         144.2182  144.0285  162.6978 C.3     1  UNL1        0.0666
     20 S         142.7556  144.2282  162.4313 S.3     1  UNL1       -0.0756
     21 C         140.3008  141.3715  163.3684 C.ar    1  UNL1        0.2029
     22 N         140.1021  142.3134  164.5187 N.ar    1  UNL1       -0.1250
     23 N         140.9974  143.4982  164.3077 N.ar    1  UNL1       -0.1220
     24 C         141.7495  143.2885  163.0269 C.ar    1  UNL1        0.1933
     25 N         141.3190  141.9741  162.4465 N.ar    1  UNL1       -0.2860
     26 C         141.8189  141.3687  161.1683 C.3     1  UNL1        0.1341
     27 C         137.8720  140.7803  161.2705 C.3     1  UNL1        0.0556
     28 C         138.4874  139.7858  162.2099 C.ar    1  UNL1        0.1001
     29 N         138.0943  138.3450  162.3500 N.ar    1  UNL1       -0.2085
     30 C         138.9678  137.7263  163.4008 C.ar    1  UNL1        0.2849
     31 O         139.9006  138.7847  163.9102 O.2     1  UNL1       -0.4283
     32 C         139.6037  140.0575  163.1742 C.ar    1  UNL1        0.1964
@<TRIPOS>BOND
     1    27    28    1
     2    28    29   ar
     3    29    30   ar
     4    30    31   ar
     5    31    32   ar
     6    32    21    1
     7    21    22   ar
     8    22    23   ar
     9    23    24   ar
    10    24    20    1
    11    20    19    1
    12    19    18    1
    13    18     1    1
    14     1     2    1
    15     2     3    1
    16     4     3    1
    17     4     5    1
    18     5     6    1
    19     6     8    1
    20     8     9   ar
    21     9    10   ar
    22    10    11   ar
    23    11    14    1
    24    14    15    1
    25    14    16    1
    26    14    17    1
    27    11    12   ar
    28    12    13   ar
    29     6     7    1
    30    24    25   ar
    31    25    26    1
    32    32    28   ar
    33    25    21   ar
    34     7     2    1
    35     6     4    1
    36    13     8   ar
@<TRIPOS>MOLECULE
*****
 32 36 0 0 0
SMALL
GASTEIGER

@<TRIPOS>ATOM
      1 C         138.0153  143.2355  162.3484 C.3     1  UNL1        0.0730
      2 N         138.2106  142.0328  163.2234 N.3     1  UNL1       -0.2724
      3 C         137.8142  140.6254  162.8889 C.3     1  UNL1        0.0724
      4 C         138.1952  139.7492  164.0453 C.3     1  UNL1        0.0214
      5 C         138.6803  139.1407  165.3276 C.3     1  UNL1        0.0072
      6 C         138.8271  140.6151  165.0945 C.3     1  UNL1        0.0350
      7 C         138.8366  142.0265  164.5865 C.3     1  UNL1        0.0761
      8 C         139.4838  140.9171  166.4088 C.ar    1  UNL1       -0.0215
      9 C         140.1954  142.2222  166.6093 C.ar    1  UNL1       -0.0043
     10 C         140.8522  142.5242  167.9237 C.ar    1  UNL1        0.0035
     11 C         140.7972  141.5210  169.0376 C.ar    1  UNL1        0.0714
     12 C         140.0855  140.2158  168.8370 C.ar    1  UNL1        0.0035
     13 C         139.4288  139.9139  167.5227 C.ar    1  UNL1       -0.0043
     14 C         141.4540  141.8229  170.3519 C.3     1  UNL1        0.4186
     15 F         142.1107  142.1248  171.6663 F       1  UNL1       -0.1659
     16 F         141.9889  140.4226  170.4063 F       1  UNL1       -0.1659
     17 F         140.9190  143.2232  170.2975 F       1  UNL1       -0.1659
     18 C         138.3071  144.6066  162.8821 C.3     1  UNL1        0.0294
     19 C         139.2887  145.4934  162.1749 C.3     1  UNL1        0.0666
     20 S         140.6267  144.9536  161.7644 S.3     1  UNL1       -0.0756
     21 C         142.7061  142.4685  163.9011 C.ar    1  UNL1        0.2029
     22 N         142.8748  143.7363  164.6849 N.ar    1  UNL1       -0.1250
     23 N         142.1164  144.8214  163.9799 N.ar    1  UNL1       -0.1220
     24 C         141.4790  144.2244  162.7604 C.ar    1  UNL1        0.1933
     25 N         141.8435  142.7702  162.7117 N.ar    1  UNL1       -0.2860
     26 C         141.4196  141.7898  161.6585 C.3     1  UNL1        0.1341
     27 C         145.8450  141.6255  163.6078 C.3     1  UNL1        0.0556
     28 C         144.7392  140.7459  164.1114 C.ar    1  UNL1        0.1001
     29 N         144.8821  139.3245  164.5686 N.ar    1  UNL1       -0.2085
     30 C         143.5276  138.8335  164.9859 C.ar    1  UNL1        0.2849
     31 O         142.5476  139.9514  164.7867 O.2     1  UNL1       -0.4283
     32 C         143.2965  141.1334  164.2462 C.ar    1  UNL1        0.1964
@<TRIPOS>BOND
     1    27    28    1
     2    28    29   ar
     3    29    30   ar
     4    30    31   ar
     5    31    32   ar
     6    32    21    1
     7    21    22   ar
     8    22    23   ar
     9    23    24   ar
    10    24    20    1
    11    20    19    1
    12    19    18    1
    13    18     1    1
    14     1     2    1
    15     2     3    1
    16     4     3    1
    17     4     5    1
    18     5     6    1
    19     6     8    1
    20     8     9   ar
    21     9    10   ar
    22    10    11   ar
    23    11    14    1
    24    14    15    1
    25    14    16    1
    26    14    17    1
    27    11    12   ar
    28    12    13   ar
    29     6     7    1
    30    24    25   ar
    31    25    26    1
    32    32    28   ar
    33    25    21   ar
    34     7     2    1
    35     6     4    1
    36    13     8   ar
@<TRIPOS>MOLECULE
*****
 32 36 0 0 0
SMALL
GASTEIGER

@<TRIPOS>ATOM
      1 C         142.2582  138.1405  162.9611 C.3     1  UNL1        0.0730
      2 N         142.8227  139.3696  163.6097 N.3     1  UNL1       -0.2724
      3 C         144.0366  140.1263  163.1581 C.3     1  UNL1        0.0724
      4 C         144.2366  141.2822  164.0930 C.3     1  UNL1        0.0214
      5 C         144.1804  142.3255  165.1692 C.3     1  UNL1        0.0072
      6 C         143.1464  141.2399  165.1223 C.3     1  UNL1        0.0350
      7 C         142.2725  140.0578  164.8236 C.3     1  UNL1        0.0761
      8 C         142.3800  141.7011  166.3264 C.ar    1  UNL1       -0.0215
      9 C         140.8891  141.8500  166.2547 C.ar    1  UNL1       -0.0043
     10 C         140.1226  142.3112  167.4589 C.ar    1  UNL1        0.0035
     11 C         140.8471  142.6237  168.7346 C.ar    1  UNL1        0.0714
     12 C         142.3381  142.4748  168.8062 C.ar    1  UNL1        0.0035
     13 C         143.1045  142.0136  167.6022 C.ar    1  UNL1       -0.0043
     14 C         140.0807  143.0849  169.9387 C.3     1  UNL1        0.4186
     15 F         139.3143  143.5462  171.1428 F       1  UNL1       -0.1659
     16 F         139.3829  141.7587  170.0026 F       1  UNL1       -0.1659
     17 F         140.7785  144.4112  169.8748 F       1  UNL1       -0.1659
     18 C         141.1343  137.3950  163.6177 C.3     1  UNL1        0.0294
     19 C         139.7220  137.6140  163.1623 C.3     1  UNL1        0.0666
     20 S         139.4444  138.4804  161.9696 S.3     1  UNL1       -0.0756
     21 C         138.9601  142.3288  162.1091 C.ar    1  UNL1        0.2029
     22 N         137.7172  141.8550  162.8023 N.ar    1  UNL1       -0.1250
     23 N         137.7473  140.3557  162.8344 N.ar    1  UNL1       -0.1220
     24 C         139.0089  139.9029  162.1611 C.ar    1  UNL1        0.1933
     25 N         139.7584  141.1224  161.7128 N.ar    1  UNL1       -0.2860
     26 C         141.0751  141.1334  160.9943 C.3     1  UNL1        0.1341
     27 C         139.3612  144.6371  164.3809 C.3     1  UNL1        0.0556
     28 C         139.5227  144.8192  162.9007 C.ar    1  UNL1        0.1001
     29 N         139.8969  146.0943  162.2050 N.ar    1  UNL1       -0.2085
     30 C         139.9438  145.8214  160.7308 C.ar    1  UNL1        0.2849
     31 O         139.5986  144.3777  160.5154 O.2     1  UNL1       -0.4283
     32 C         139.3383  143.7583  161.8566 C.ar    1  UNL1        0.1964
@<TRIPOS>BOND
     1    27    28    1
     2    28    29   ar
     3    29    30   ar
     4    30    31   ar
     5    31    32   ar
     6    32    21    1
     7    21    22   ar
     8    22    23   ar
     9    23    24   ar
    10    24    20    1
    11    20    19    1
    12    19    18    1
    13    18     1    1
    14     1     2    1
    15     2     3    1
    16     4     3    1
    17     4     5    1
    18     5     6    1
    19     6     8    1
    20     8     9   ar
    21     9    10   ar
    22    10    11   ar
    23    11    14    1
    24    14    15    1
    25    14    16    1
    26    14    17    1
    27    11    12   ar
    28    12    13   ar
    29     6     7    1
    30    24    25   ar
    31    25    26    1
    32    32    28   ar
    33    25    21   ar
    34     7     2    1
    35     6     4    1
    36    13     8   ar
@<TRIPOS>MOLECULE
*****
 32 36 0 0 0
SMALL
GASTEIGER

@<TRIPOS>ATOM
      1 C         142.3905  144.3381  161.5205 C.3     1  UNL1        0.0730
      2 N         141.1553  144.3061  162.3711 N.3     1  UNL1       -0.2724
      3 C         140.2551  145.4700  162.6625 C.3     1  UNL1        0.0724
      4 C         139.1470  144.9878  163.5510 C.3     1  UNL1        0.0214
      5 C         138.1850  144.2292  164.4165 C.3     1  UNL1        0.0072
      6 C         139.3623  143.5259  163.8088 C.3     1  UNL1        0.0350
      7 C         140.6036  143.1046  163.0795 C.3     1  UNL1        0.0761
      8 C         139.0567  142.1774  164.3902 C.ar    1  UNL1       -0.0215
      9 C         139.5514  141.8221  165.7610 C.ar    1  UNL1       -0.0043
     10 C         139.2458  140.4735  166.3425 C.ar    1  UNL1        0.0035
     11 C         138.4454  139.4803  165.5531 C.ar    1  UNL1        0.0714
     12 C         137.9507  139.8357  164.1823 C.ar    1  UNL1        0.0035
     13 C         138.2563  141.1842  163.6009 C.ar    1  UNL1       -0.0043
     14 C         138.1398  138.1318  166.1346 C.3     1  UNL1        0.4186
     15 F         137.8342  136.7833  166.7160 F       1  UNL1       -0.1659
     16 F         137.5689  138.7881  167.3566 F       1  UNL1       -0.1659
     17 F         138.7107  137.4755  164.9126 F       1  UNL1       -0.1659
     18 C         143.2448  143.1119  161.3923 C.3     1  UNL1        0.0294
     19 C         144.2789  142.8058  162.4349 C.3     1  UNL1        0.0666
     20 S         144.0978  141.6297  163.3482 S.3     1  UNL1       -0.0756
     21 C         143.0856  141.4967  167.0929 C.ar    1  UNL1        0.2029
     22 N         143.6785  142.8715  167.0016 N.ar    1  UNL1       -0.1250
     23 N         144.1298  143.0887  165.5878 N.ar    1  UNL1       -0.1220
     24 C         143.8159  141.8481  164.8052 C.ar    1  UNL1        0.1933
     25 N         143.1705  140.8642  165.7355 N.ar    1  UNL1       -0.2860
     26 C         142.6938  139.4892  165.3721 C.3     1  UNL1        0.1341
     27 C         140.8384  142.8204  169.0545 C.3     1  UNL1        0.0556
     28 C         141.4762  141.4736  169.2270 C.ar    1  UNL1        0.1001
     29 N         141.1929  140.4989  170.3314 N.ar    1  UNL1       -0.2085
     30 C         142.0507  139.2881  170.1123 C.ar    1  UNL1        0.2849
     31 O         142.8641  139.5145  168.8726 O.2     1  UNL1       -0.4283
     32 C         142.5090  140.8652  168.3254 C.ar    1  UNL1        0.1964
@<TRIPOS>BOND
     1    27    28    1
     2    28    29   ar
     3    29    30   ar
     4    30    31   ar
     5    31    32   ar
     6    32    21    1
     7    21    22   ar
     8    22    23   ar
     9    23    24   ar
    10    24    20    1
    11    20    19    1
    12    19    18    1
    13    18     1    1
    14     1     2    1
    15     2     3    1
    16     4     3    1
    17     4     5    1
    18     5     6    1
    19     6     8    1
    20     8     9   ar
    21     9    10   ar
    22    10    11   ar
    23    11    14    1
    24    14    15    1
    25    14    16    1
    26    14    17    1
    27    11    12   ar
    28    12    13   ar
    29     6     7    1
    30    24    25   ar
    31    25    26    1
    32    32    28   ar
    33    25    21   ar
    34     7     2    1
    35     6     4    1
    36    13     8   ar
