@<TRIPOS>MOLECULE
*****
 42 47 0 0 0
SMALL
GASTEIGER

@<TRIPOS>ATOM
      1 N         139.1409  142.4751  160.4509 N.am    1  UNL1       -0.1907
      2 C         138.4871  141.5728  159.4466 C.2     1  UNL1        0.3231
      3 O         137.8546  140.2438  159.7354 O.2     1  UNL1       -0.2511
      4 N         138.5769  142.2330  158.1027 N.am    1  UNL1       -0.2071
      5 C         139.2862  143.5434  158.2764 C.3     1  UNL1        0.1405
      6 C         140.0058  144.8184  158.6027 C.3     1  UNL1        0.0450
      7 C         140.3126  145.8056  157.5160 C.3     1  UNL1        0.0746
      8 N         139.8998  145.5179  156.1029 N.3     1  UNL1       -0.2676
      9 C         139.1803  144.2430  155.7765 C.3     1  UNL1        0.0746
     10 C         138.8735  143.2557  156.8632 C.3     1  UNL1        0.0450
     11 C         139.6347  143.6929  159.7276 C.2     1  UNL1        0.2529
     12 O         140.3513  144.8561  160.3469 O.2     1  UNL1       -0.2724
     13 C         139.5489  141.6697  164.8594 C.ar    1  UNL1       -0.0002
     14 C         138.3228  142.3546  164.3324 C.ar    1  UNL1        0.0013
     15 C         138.1868  142.6231  162.8629 C.ar    1  UNL1        0.0154
     16 C         139.2769  142.2066  161.9204 C.ar    1  UNL1        0.0622
     17 C         140.5029  141.5218  162.4473 C.ar    1  UNL1        0.0154
     18 C         140.6389  141.2533  163.9168 C.ar    1  UNL1        0.0013
     19 C         138.5100  139.1049  166.0181 C.3     1  UNL1        0.0310
     20 C         139.1655  140.1189  166.9082 C.ar    1  UNL1       -0.0218
     21 C         139.3015  139.8504  168.3778 C.ar    1  UNL1       -0.0031
     22 C         139.9570  140.8644  169.2679 C.ar    1  UNL1        0.0137
     23 C         140.4764  142.1468  168.6885 C.ar    1  UNL1        0.0011
     24 C         140.3404  142.4152  167.2190 C.ar    1  UNL1       -0.0003
     25 C         139.6849  141.4013  166.3288 C.ar    1  UNL1       -0.0040
     26 C         140.0930  140.5959  170.7374 C.2     1  UNL1        0.0729
     27 O         139.5173  139.3427  171.3273 O.co2   1  UNL1       -0.5446
     28 O         140.8047  141.5807  171.6170 O.co2   1  UNL1       -0.5446
     29 C         138.0500  141.6801  156.8117 C.ar    1  UNL1        0.2276
     30 N         136.6447  141.9833  156.3839 N.ar    1  UNL1       -0.2117
     31 C         136.1179  141.4304  155.0929 C.ar    1  UNL1        0.1034
     32 C         136.9963  140.5741  154.2297 C.ar    1  UNL1        0.0414
     33 C         138.4017  140.2709  154.6575 C.ar    1  UNL1        0.1034
     34 N         138.9285  140.8239  155.9485 N.ar    1  UNL1       -0.2117
     35 C         140.2067  146.5053  155.0161 C.3     1  UNL1        0.1183
     36 C         139.6849  147.9086  155.1085 C.ar    1  UNL1        0.0712
     37 N         138.8313  148.3163  156.2726 N.ar    1  UNL1       -0.2471
     38 C         138.3095  149.7196  156.3649 C.ar    1  UNL1        0.0985
     39 C         138.6412  150.7151  155.2931 C.ar    1  UNL1        0.0203
     40 C         139.4948  150.3074  154.1290 C.ar    1  UNL1       -0.0015
     41 C         140.0166  148.9042  154.0366 C.ar    1  UNL1       -0.0069
     42 C         140.8701  148.4965  152.8725 C.3     1  UNL1        0.0323
@<TRIPOS>UNITY_ATOM_ATTR
27 1
charge -1
@<TRIPOS>BOND
     1    19    20    1
     2    20    21   ar
     3    21    22   ar
     4    22    26    1
     5    26    27   ar
     6    26    28   ar
     7    22    23   ar
     8    23    24   ar
     9    24    25   ar
    10    25    13    1
    11    13    14   ar
    12    14    15   ar
    13    15    16   ar
    14    16     1    1
    15     1     2   am
    16     2     3    2
    17     2     4   am
    18     4    29    1
    19    29    30   ar
    20    30    31   ar
    21    31    32   ar
    22    32    33   ar
    23    33    34   ar
    24     4     5    1
    25     5     6    1
    26     6     7    1
    27     7     8    1
    28     8    35    1
    29    35    36    1
    30    36    37   ar
    31    37    38   ar
    32    38    39   ar
    33    39    40   ar
    34    40    41   ar
    35    41    42    1
    36     8     9    1
    37     9    10    1
    38     5    11    1
    39    11    12    2
    40    16    17   ar
    41    17    18   ar
    42    25    20   ar
    43    18    13   ar
    44    11     1   am
    45    34    29   ar
    46    10     5    1
    47    41    36   ar
@<TRIPOS>MOLECULE
*****
 42 47 0 0 0
SMALL
GASTEIGER

@<TRIPOS>ATOM
      1 N         142.8985  140.5439  160.7705 N.am    1  UNL1       -0.1907
      2 C         143.4822  141.5810  159.8573 C.2     1  UNL1        0.3231
      3 O         143.7924  143.0025  160.2219 O.2     1  UNL1       -0.2511
      4 N         143.7011  140.9470  158.5157 N.am    1  UNL1       -0.2071
      5 C         143.2528  139.5179  158.5996 C.3     1  UNL1        0.1405
      6 C         142.7677  138.1179  158.8333 C.3     1  UNL1        0.0450
      7 C         142.8082  137.1143  157.7193 C.3     1  UNL1        0.0746
      8 N         143.3340  137.5107  156.3716 N.3     1  UNL1       -0.2676
      9 C         143.8191  138.9106  156.1378 C.3     1  UNL1        0.0746
     10 C         143.7785  139.9143  157.2518 C.3     1  UNL1        0.0450
     11 C         142.7568  139.2688  159.9931 C.2     1  UNL1        0.2529
     12 O         142.2143  137.9723  160.5173 O.2     1  UNL1       -0.2724
     13 C         141.7709  141.1509  165.0844 C.ar    1  UNL1       -0.0002
     14 C         142.8041  140.1277  164.7161 C.ar    1  UNL1        0.0013
     15 C         143.1800  139.9254  163.2781 C.ar    1  UNL1        0.0154
     16 C         142.5227  140.7462  162.2085 C.ar    1  UNL1        0.0622
     17 C         141.4895  141.7693  162.5768 C.ar    1  UNL1        0.0154
     18 C         141.1137  141.9717  164.0147 C.ar    1  UNL1        0.0013
     19 C         139.4509  139.6507  166.2538 C.3     1  UNL1        0.0310
     20 C         140.2351  140.6032  167.1070 C.ar    1  UNL1       -0.0218
     21 C         139.8591  140.8055  168.5450 C.ar    1  UNL1       -0.0031
     22 C         140.6432  141.7580  169.3983 C.ar    1  UNL1        0.0137
     23 C         141.8032  142.5081  168.8136 C.ar    1  UNL1        0.0011
     24 C         142.1791  142.3057  167.3756 C.ar    1  UNL1       -0.0003
     25 C         141.3950  141.3533  166.5223 C.ar    1  UNL1       -0.0040
     26 C         140.2674  141.9604  170.8363 C.2     1  UNL1        0.0729
     27 O         140.7257  140.9813  171.8762 O.co2   1  UNL1       -0.5446
     28 O         139.4332  143.1418  171.2343 O.co2   1  UNL1       -0.5446
     29 C         144.2687  141.6231  157.3030 C.ar    1  UNL1        0.2276
     30 N         145.7473  141.5962  157.0523 N.ar    1  UNL1       -0.2117
     31 C         146.3148  142.2723  155.8396 C.ar    1  UNL1        0.1034
     32 C         145.4038  142.9755  154.8775 C.ar    1  UNL1        0.0414
     33 C         143.9251  143.0025  155.1282 C.ar    1  UNL1        0.1034
     34 N         143.3576  142.3263  156.3410 N.ar    1  UNL1       -0.2117
     35 C         143.3745  136.5070  155.2575 C.3     1  UNL1        0.1183
     36 C         143.0096  135.0765  155.5231 C.ar    1  UNL1        0.0712
     37 N         143.9536  134.1897  156.2796 N.ar    1  UNL1       -0.2471
     38 C         143.5885  132.7591  156.5452 C.ar    1  UNL1        0.0985
     39 C         142.2795  132.2156  156.0543 C.ar    1  UNL1        0.0203
     40 C         141.3355  133.1025  155.2978 C.ar    1  UNL1       -0.0015
     41 C         141.7005  134.5329  155.0322 C.ar    1  UNL1       -0.0069
     42 C         140.7565  135.4198  154.2757 C.3     1  UNL1        0.0323
@<TRIPOS>UNITY_ATOM_ATTR
27 1
charge -1
@<TRIPOS>BOND
     1    19    20    1
     2    20    21   ar
     3    21    22   ar
     4    22    26    1
     5    26    27   ar
     6    26    28   ar
     7    22    23   ar
     8    23    24   ar
     9    24    25   ar
    10    25    13    1
    11    13    14   ar
    12    14    15   ar
    13    15    16   ar
    14    16     1    1
    15     1     2   am
    16     2     3    2
    17     2     4   am
    18     4    29    1
    19    29    30   ar
    20    30    31   ar
    21    31    32   ar
    22    32    33   ar
    23    33    34   ar
    24     4     5    1
    25     5     6    1
    26     6     7    1
    27     7     8    1
    28     8    35    1
    29    35    36    1
    30    36    37   ar
    31    37    38   ar
    32    38    39   ar
    33    39    40   ar
    34    40    41   ar
    35    41    42    1
    36     8     9    1
    37     9    10    1
    38     5    11    1
    39    11    12    2
    40    16    17   ar
    41    17    18   ar
    42    25    20   ar
    43    18    13   ar
    44    11     1   am
    45    34    29   ar
    46    10     5    1
    47    41    36   ar
@<TRIPOS>MOLECULE
*****
 42 47 0 0 0
SMALL
GASTEIGER

@<TRIPOS>ATOM
      1 N         142.1194  139.6398  160.7906 N.am    1  UNL1       -0.1907
      2 C         141.3960  138.5995  159.9878 C.2     1  UNL1        0.3231
      3 O         140.2653  137.7411  160.4718 O.2     1  UNL1       -0.2511
      4 N         142.0019  138.5684  158.6160 N.am    1  UNL1       -0.2071
      5 C         143.0999  139.5895  158.5708 C.3     1  UNL1        0.1405
      6 C         144.1624  140.6431  158.6753 C.3     1  UNL1        0.0450
      7 C         145.0345  140.9484  157.4937 C.3     1  UNL1        0.0746
      8 N         144.8441  140.2001  156.2077 N.3     1  UNL1       -0.2676
      9 C         143.7815  139.1465  156.1032 C.3     1  UNL1        0.0746
     10 C         142.9094  138.8413  157.2848 C.3     1  UNL1        0.0450
     11 C         143.1725  140.2517  159.9148 C.2     1  UNL1        0.2529
     12 O         144.1300  141.3354  160.3132 O.2     1  UNL1       -0.2724
     13 C         141.2784  140.7332  165.0739 C.ar    1  UNL1       -0.0002
     14 C         142.2542  139.6389  164.7569 C.ar    1  UNL1        0.0013
     15 C         142.5345  139.2745  163.3291 C.ar    1  UNL1        0.0154
     16 C         141.8391  140.0043  162.2184 C.ar    1  UNL1        0.0622
     17 C         140.8634  141.0985  162.5354 C.ar    1  UNL1        0.0154
     18 C         140.5831  141.4630  163.9631 C.ar    1  UNL1        0.0013
     19 C         139.0864  139.3397  166.5751 C.3     1  UNL1        0.0310
     20 C         139.9021  140.4009  167.2522 C.ar    1  UNL1       -0.0218
     21 C         139.6217  140.7654  168.6801 C.ar    1  UNL1       -0.0031
     22 C         140.4373  141.8266  169.3573 C.ar    1  UNL1        0.0137
     23 C         141.5334  142.5233  168.6066 C.ar    1  UNL1        0.0011
     24 C         141.8137  142.1589  167.1789 C.ar    1  UNL1       -0.0003
     25 C         140.9981  141.0977  166.5017 C.ar    1  UNL1       -0.0040
     26 C         140.1570  142.1911  170.7850 C.2     1  UNL1        0.0729
     27 O         139.2874  143.3718  171.1008 O.co2   1  UNL1       -0.5446
     28 O         140.7462  141.3748  171.8971 O.co2   1  UNL1       -0.5446
     29 C         141.5834  137.6734  157.4873 C.ar    1  UNL1        0.2276
     30 N         140.4114  138.0468  156.6290 N.ar    1  UNL1       -0.2117
     31 C         139.9930  137.1517  155.5004 C.ar    1  UNL1        0.1034
     32 C         140.7466  135.8832  155.2300 C.ar    1  UNL1        0.0414
     33 C         141.9187  135.5099  156.0884 C.ar    1  UNL1        0.1034
     34 N         142.3371  136.4049  157.2170 N.ar    1  UNL1       -0.2117
     35 C         145.7163  140.5054  155.0261 C.3     1  UNL1        0.1183
     36 C         145.8602  141.9190  154.5455 C.ar    1  UNL1        0.0712
     37 N         144.7044  142.6067  153.8811 N.ar    1  UNL1       -0.2471
     38 C         144.8484  144.0203  153.4005 C.ar    1  UNL1        0.0985
     39 C         146.1481  144.7463  153.5843 C.ar    1  UNL1        0.0203
     40 C         147.3038  144.0586  154.2486 C.ar    1  UNL1       -0.0015
     41 C         147.1599  142.6450  154.7292 C.ar    1  UNL1       -0.0069
     42 C         148.3157  141.9574  155.3936 C.3     1  UNL1        0.0323
@<TRIPOS>UNITY_ATOM_ATTR
27 1
charge -1
@<TRIPOS>BOND
     1    19    20    1
     2    20    21   ar
     3    21    22   ar
     4    22    26    1
     5    26    27   ar
     6    26    28   ar
     7    22    23   ar
     8    23    24   ar
     9    24    25   ar
    10    25    13    1
    11    13    14   ar
    12    14    15   ar
    13    15    16   ar
    14    16     1    1
    15     1     2   am
    16     2     3    2
    17     2     4   am
    18     4    29    1
    19    29    30   ar
    20    30    31   ar
    21    31    32   ar
    22    32    33   ar
    23    33    34   ar
    24     4     5    1
    25     5     6    1
    26     6     7    1
    27     7     8    1
    28     8    35    1
    29    35    36    1
    30    36    37   ar
    31    37    38   ar
    32    38    39   ar
    33    39    40   ar
    34    40    41   ar
    35    41    42    1
    36     8     9    1
    37     9    10    1
    38     5    11    1
    39    11    12    2
    40    16    17   ar
    41    17    18   ar
    42    25    20   ar
    43    18    13   ar
    44    11     1   am
    45    34    29   ar
    46    10     5    1
    47    41    36   ar
@<TRIPOS>MOLECULE
*****
 42 47 0 0 0
SMALL
GASTEIGER

@<TRIPOS>ATOM
      1 N         141.5840  139.4937  160.7149 N.am    1  UNL1       -0.1907
      2 C         142.6239  138.7143  159.9657 C.2     1  UNL1        0.3231
      3 O         143.9497  138.2669  160.5062 O.2     1  UNL1       -0.2511
      4 N         142.1053  138.4610  158.5813 N.am    1  UNL1       -0.2071
      5 C         140.7448  139.0838  158.4747 C.3     1  UNL1        0.1405
      6 C         139.4026  139.7521  158.5173 C.3     1  UNL1        0.0450
      7 C         138.5195  139.7390  157.3050 C.3     1  UNL1        0.0746
      8 N         138.9784  139.0574  156.0500 N.3     1  UNL1       -0.2676
      9 C         140.3206  138.3891  156.0074 C.3     1  UNL1        0.0746
     10 C         141.2038  138.4023  157.2197 C.3     1  UNL1        0.0450
     11 C         140.4226  139.7220  159.7934 C.2     1  UNL1        0.2529
     12 O         139.1607  140.4592  160.1312 O.2     1  UNL1       -0.2724
     13 C         141.8939  140.8999  164.9783 C.ar    1  UNL1       -0.0002
     14 C         142.1249  139.4554  164.6463 C.ar    1  UNL1        0.0013
     15 C         142.0216  138.9867  163.2252 C.ar    1  UNL1        0.0154
     16 C         141.6873  139.9624  162.1360 C.ar    1  UNL1        0.0622
     17 C         141.4563  141.4068  162.4680 C.ar    1  UNL1        0.0154
     18 C         141.5596  141.8755  163.8891 C.ar    1  UNL1        0.0013
     19 C         139.5569  140.5897  166.8337 C.3     1  UNL1        0.0310
     20 C         140.8287  141.2135  167.3271 C.ar    1  UNL1       -0.0218
     21 C         140.9320  141.6822  168.7483 C.ar    1  UNL1       -0.0031
     22 C         142.2038  142.3061  169.2417 C.ar    1  UNL1        0.0137
     23 C         143.3723  142.4611  168.3140 C.ar    1  UNL1        0.0011
     24 C         143.2690  141.9924  166.8928 C.ar    1  UNL1       -0.0003
     25 C         141.9972  141.3686  166.3994 C.ar    1  UNL1       -0.0040
     26 C         142.3070  142.7748  170.6628 C.2     1  UNL1        0.0729
     27 O         141.4438  142.1551  171.7215 O.co2   1  UNL1       -0.5446
     28 O         143.2736  143.8632  171.0252 O.co2   1  UNL1       -0.5446
     29 C         142.8213  137.7157  157.4941 C.ar    1  UNL1        0.2276
     30 N         142.6998  136.2235  157.4022 N.ar    1  UNL1       -0.2117
     31 C         143.4159  135.4783  156.3150 C.ar    1  UNL1        0.1034
     32 C         144.2535  136.2253  155.3197 C.ar    1  UNL1        0.0414
     33 C         144.3749  137.7175  155.4117 C.ar    1  UNL1        0.1034
     34 N         143.6589  138.4627  156.4989 N.ar    1  UNL1       -0.2117
     35 C         138.0952  139.0443  154.8377 C.3     1  UNL1        0.1183
     36 C         136.7615  139.7299  154.8739 C.ar    1  UNL1        0.0712
     37 N         135.5390  138.9704  155.2966 N.ar    1  UNL1       -0.2471
     38 C         134.2053  139.6560  155.3329 C.ar    1  UNL1        0.0985
     39 C         134.0942  141.1011  154.9463 C.ar    1  UNL1        0.0203
     40 C         135.3167  141.8605  154.5236 C.ar    1  UNL1       -0.0015
     41 C         136.6503  141.1750  154.4874 C.ar    1  UNL1       -0.0069
     42 C         137.8728  141.9345  154.0646 C.3     1  UNL1        0.0323
@<TRIPOS>UNITY_ATOM_ATTR
27 1
charge -1
@<TRIPOS>BOND
     1    19    20    1
     2    20    21   ar
     3    21    22   ar
     4    22    26    1
     5    26    27   ar
     6    26    28   ar
     7    22    23   ar
     8    23    24   ar
     9    24    25   ar
    10    25    13    1
    11    13    14   ar
    12    14    15   ar
    13    15    16   ar
    14    16     1    1
    15     1     2   am
    16     2     3    2
    17     2     4   am
    18     4    29    1
    19    29    30   ar
    20    30    31   ar
    21    31    32   ar
    22    32    33   ar
    23    33    34   ar
    24     4     5    1
    25     5     6    1
    26     6     7    1
    27     7     8    1
    28     8    35    1
    29    35    36    1
    30    36    37   ar
    31    37    38   ar
    32    38    39   ar
    33    39    40   ar
    34    40    41   ar
    35    41    42    1
    36     8     9    1
    37     9    10    1
    38     5    11    1
    39    11    12    2
    40    16    17   ar
    41    17    18   ar
    42    25    20   ar
    43    18    13   ar
    44    11     1   am
    45    34    29   ar
    46    10     5    1
    47    41    36   ar
@<TRIPOS>MOLECULE
*****
 42 47 0 0 0
SMALL
GASTEIGER

@<TRIPOS>ATOM
      1 N         142.0815  139.6530  160.7790 N.am    1  UNL1       -0.1907
      2 C         141.3460  138.6275  159.9681 C.2     1  UNL1        0.3231
      3 O         140.2021  137.7821  160.4439 O.2     1  UNL1       -0.2511
      4 N         141.9553  138.5961  158.5978 N.am    1  UNL1       -0.2071
      5 C         143.0674  139.6021  158.5617 C.3     1  UNL1        0.1405
      6 C         144.1442  140.6402  158.6753 C.3     1  UNL1        0.0450
      7 C         145.0238  140.9403  157.4980 C.3     1  UNL1        0.0746
      8 N         144.8267  140.2023  156.2071 N.3     1  UNL1       -0.2676
      9 C         143.7499  139.1642  156.0935 C.3     1  UNL1        0.0746
     10 C         142.8703  138.8641  157.2708 C.3     1  UNL1        0.0450
     11 C         143.1454  140.2553  159.9098 C.2     1  UNL1        0.2529
     12 O         144.1168  141.3232  160.3172 O.2     1  UNL1       -0.2724
     13 C         141.2436  140.7327  165.0664 C.ar    1  UNL1       -0.0002
     14 C         140.5180  141.4388  163.9596 C.ar    1  UNL1        0.0013
     15 C         140.7973  141.0789  162.5304 C.ar    1  UNL1        0.0154
     16 C         141.8022  140.0129  162.2082 C.ar    1  UNL1        0.0622
     17 C         142.5277  139.3068  163.3149 C.ar    1  UNL1        0.0154
     18 C         142.2484  139.6668  164.7440 C.ar    1  UNL1        0.0013
     19 C         139.0866  139.2989  166.5803 C.3     1  UNL1        0.0310
     20 C         139.8858  140.3757  167.2524 C.ar    1  UNL1       -0.0218
     21 C         139.6064  140.7356  168.6816 C.ar    1  UNL1       -0.0031
     22 C         140.4056  141.8125  169.3538 C.ar    1  UNL1        0.0137
     23 C         141.4841  142.5294  168.5968 C.ar    1  UNL1        0.0011
     24 C         141.7634  142.1695  167.1677 C.ar    1  UNL1       -0.0003
     25 C         140.9642  141.0926  166.4955 C.ar    1  UNL1       -0.0040
     26 C         140.1262  142.1724  170.7830 C.2     1  UNL1        0.0729
     27 O         140.6896  141.3335  171.8915 O.co2   1  UNL1       -0.5446
     28 O         139.2835  143.3712  171.1036 O.co2   1  UNL1       -0.5446
     29 C         141.5277  137.7137  157.4627 C.ar    1  UNL1        0.2276
     30 N         142.2679  136.4393  157.1834 N.ar    1  UNL1       -0.2117
     31 C         141.8402  135.5569  156.0483 C.ar    1  UNL1        0.1034
     32 C         140.6722  135.9488  155.1925 C.ar    1  UNL1        0.0414
     33 C         139.9320  137.2232  155.4718 C.ar    1  UNL1        0.1034
     34 N         140.3597  138.1056  156.6069 N.ar    1  UNL1       -0.2117
     35 C         145.7063  140.5025  155.0297 C.3     1  UNL1        0.1183
     36 C         145.8514  141.9136  154.5423 C.ar    1  UNL1        0.0712
     37 N         144.6941  142.6013  153.8807 N.ar    1  UNL1       -0.2471
     38 C         144.8392  144.0125  153.3933 C.ar    1  UNL1        0.0985
     39 C         146.1416  144.7359  153.5674 C.ar    1  UNL1        0.0203
     40 C         147.2989  144.0482  154.2290 C.ar    1  UNL1       -0.0015
     41 C         147.1539  142.6371  154.7164 C.ar    1  UNL1       -0.0069
     42 C         148.3112  141.9494  155.3779 C.3     1  UNL1        0.0323
@<TRIPOS>UNITY_ATOM_ATTR
27 1
charge -1
@<TRIPOS>BOND
     1    19    20    1
     2    20    21   ar
     3    21    22   ar
     4    22    26    1
     5    26    27   ar
     6    26    28   ar
     7    22    23   ar
     8    23    24   ar
     9    24    25   ar
    10    25    13    1
    11    13    14   ar
    12    14    15   ar
    13    15    16   ar
    14    16     1    1
    15     1     2   am
    16     2     3    2
    17     2     4   am
    18     4    29    1
    19    29    30   ar
    20    30    31   ar
    21    31    32   ar
    22    32    33   ar
    23    33    34   ar
    24     4     5    1
    25     5     6    1
    26     6     7    1
    27     7     8    1
    28     8    35    1
    29    35    36    1
    30    36    37   ar
    31    37    38   ar
    32    38    39   ar
    33    39    40   ar
    34    40    41   ar
    35    41    42    1
    36     8     9    1
    37     9    10    1
    38     5    11    1
    39    11    12    2
    40    16    17   ar
    41    17    18   ar
    42    25    20   ar
    43    18    13   ar
    44    11     1   am
    45    34    29   ar
    46    10     5    1
    47    41    36   ar
@<TRIPOS>MOLECULE
*****
 42 47 0 0 0
SMALL
GASTEIGER

@<TRIPOS>ATOM
      1 N         142.7497  139.9945  160.5871 N.am    1  UNL1       -0.1907
      2 C         142.3087  138.9646  159.5895 C.2     1  UNL1        0.3231
      3 O         141.4320  137.7811  159.8733 O.2     1  UNL1       -0.2511
      4 N         142.8983  139.3262  158.2585 N.am    1  UNL1       -0.2071
      5 C         143.7038  140.5795  158.4333 C.3     1  UNL1        0.1405
      6 C         144.4673  141.8287  158.7594 C.3     1  UNL1        0.0450
      7 C         145.2305  142.5435  157.6840 C.3     1  UNL1        0.0746
      8 N         145.2302  142.0090  156.2825 N.3     1  UNL1       -0.2676
      9 C         144.4667  140.7597  155.9563 C.3     1  UNL1        0.0746
     10 C         143.7035  140.0450  157.0318 C.3     1  UNL1        0.0450
     11 C         143.6119  140.9926  159.8724 C.2     1  UNL1        0.2529
     12 O         144.2672  142.1929  160.4887 O.2     1  UNL1       -0.2724
     13 C         141.6750  140.0757  164.9560 C.ar    1  UNL1       -0.0002
     14 C         142.2612  138.8347  164.3508 C.ar    1  UNL1        0.0013
     15 C         142.6194  138.8076  162.8945 C.ar    1  UNL1        0.0154
     16 C         142.3915  140.0216  162.0434 C.ar    1  UNL1        0.0622
     17 C         141.8053  141.2625  162.6486 C.ar    1  UNL1        0.0154
     18 C         141.4471  141.2896  164.1049 C.ar    1  UNL1        0.0013
     19 C         138.8018  139.8838  165.7978 C.3     1  UNL1        0.0310
     20 C         139.8802  140.0068  166.8332 C.ar    1  UNL1       -0.0218
     21 C         139.5219  140.0339  168.2896 C.ar    1  UNL1       -0.0031
     22 C         140.6001  140.1570  169.3251 C.ar    1  UNL1        0.0137
     23 C         142.0367  140.2529  168.9041 C.ar    1  UNL1        0.0011
     24 C         142.3950  140.2259  167.4478 C.ar    1  UNL1       -0.0003
     25 C         141.3167  140.1028  166.4123 C.ar    1  UNL1       -0.0040
     26 C         140.2419  140.1840  170.7814 C.2     1  UNL1        0.0729
     27 O         139.2783  139.1769  171.3355 O.co2   1  UNL1       -0.5446
     28 O         140.8473  141.2183  171.6836 O.co2   1  UNL1       -0.5446
     29 C         142.7148  138.5676  156.9776 C.ar    1  UNL1        0.2276
     30 N         143.6683  137.4685  156.6135 N.ar    1  UNL1       -0.2117
     31 C         143.4847  136.7100  155.3325 C.ar    1  UNL1        0.1034
     32 C         142.3475  137.0506  154.4155 C.ar    1  UNL1        0.0414
     33 C         141.3940  138.1498  154.7796 C.ar    1  UNL1        0.1034
     34 N         141.5776  138.9083  156.0606 N.ar    1  UNL1       -0.2117
     35 C         145.9935  142.7238  155.2070 C.3     1  UNL1        0.1183
     36 C         147.3844  142.2852  154.8566 C.ar    1  UNL1        0.0712
     37 N         148.3865  142.0299  155.9432 N.ar    1  UNL1       -0.2471
     38 C         149.7775  141.5913  155.5928 C.ar    1  UNL1        0.0985
     39 C         150.1664  141.4080  154.1557 C.ar    1  UNL1        0.0203
     40 C         149.1644  141.6633  153.0691 C.ar    1  UNL1       -0.0015
     41 C         147.7734  142.1019  153.4195 C.ar    1  UNL1       -0.0069
     42 C         146.7714  142.3572  152.3329 C.3     1  UNL1        0.0323
@<TRIPOS>UNITY_ATOM_ATTR
27 1
charge -1
@<TRIPOS>BOND
     1    19    20    1
     2    20    21   ar
     3    21    22   ar
     4    22    26    1
     5    26    27   ar
     6    26    28   ar
     7    22    23   ar
     8    23    24   ar
     9    24    25   ar
    10    25    13    1
    11    13    14   ar
    12    14    15   ar
    13    15    16   ar
    14    16     1    1
    15     1     2   am
    16     2     3    2
    17     2     4   am
    18     4    29    1
    19    29    30   ar
    20    30    31   ar
    21    31    32   ar
    22    32    33   ar
    23    33    34   ar
    24     4     5    1
    25     5     6    1
    26     6     7    1
    27     7     8    1
    28     8    35    1
    29    35    36    1
    30    36    37   ar
    31    37    38   ar
    32    38    39   ar
    33    39    40   ar
    34    40    41   ar
    35    41    42    1
    36     8     9    1
    37     9    10    1
    38     5    11    1
    39    11    12    2
    40    16    17   ar
    41    17    18   ar
    42    25    20   ar
    43    18    13   ar
    44    11     1   am
    45    34    29   ar
    46    10     5    1
    47    41    36   ar
@<TRIPOS>MOLECULE
*****
 42 47 0 0 0
SMALL
GASTEIGER

@<TRIPOS>ATOM
      1 N         139.7428  141.0276  160.7611 N.am    1  UNL1       -0.1907
      2 C         138.6209  141.6668  159.9975 C.2     1  UNL1        0.3231
      3 O         137.6667  142.6951  160.5284 O.2     1  UNL1       -0.2511
      4 N         138.6210  141.0972  158.6099 N.am    1  UNL1       -0.2071
      5 C         139.7429  140.1058  158.5158 C.3     1  UNL1        0.1405
      6 C         140.8966  139.1489  158.5716 C.3     1  UNL1        0.0450
      7 C         141.2611  138.3422  157.3607 C.3     1  UNL1        0.0746
      8 N         140.4719  138.4925  156.0940 N.3     1  UNL1       -0.2676
      9 C         139.3182  139.4494  156.0382 C.3     1  UNL1        0.0746
     10 C         138.9537  140.2561  157.2491 C.3     1  UNL1        0.0450
     11 C         140.4361  140.0628  159.8453 C.2     1  UNL1        0.2529
     12 O         141.6157  139.2056  160.1973 O.2     1  UNL1       -0.2724
     13 C         140.8361  141.8582  165.0465 C.ar    1  UNL1       -0.0002
     14 C         140.0807  140.6113  164.6933 C.ar    1  UNL1        0.0013
     15 C         139.7163  140.3345  163.2649 C.ar    1  UNL1        0.0154
     16 C         140.1072  141.3045  162.1896 C.ar    1  UNL1        0.0622
     17 C         140.8625  142.5513  162.5427 C.ar    1  UNL1        0.0154
     18 C         141.2270  142.8282  163.9712 C.ar    1  UNL1        0.0013
     19 C         143.4748  140.9276  166.1288 C.3     1  UNL1        0.0310
     20 C         142.5198  141.6698  167.0160 C.ar    1  UNL1       -0.0218
     21 C         142.8843  141.9467  168.4446 C.ar    1  UNL1       -0.0031
     22 C         141.9294  142.6889  169.3319 C.ar    1  UNL1        0.0137
     23 C         140.6101  143.1542  168.7907 C.ar    1  UNL1        0.0011
     24 C         140.2456  142.8773  167.3623 C.ar    1  UNL1       -0.0003
     25 C         141.2005  142.1351  166.4749 C.ar    1  UNL1       -0.0040
     26 C         142.2939  142.9658  170.7604 C.2     1  UNL1        0.0729
     27 O         141.6114  142.2177  171.8670 O.co2   1  UNL1       -0.5446
     28 O         143.3407  143.9907  171.0822 O.co2   1  UNL1       -0.5446
     29 C         137.6668  141.4558  157.5096 C.ar    1  UNL1        0.2276
     30 N         136.4694  140.5923  157.2440 N.ar    1  UNL1       -0.2117
     31 C         135.5153  140.9510  156.1436 C.ar    1  UNL1        0.1034
     32 C         135.7585  142.1732  155.3087 C.ar    1  UNL1        0.0414
     33 C         136.9559  143.0367  155.5742 C.ar    1  UNL1        0.1034
     34 N         137.9100  142.6780  156.6746 N.ar    1  UNL1       -0.2117
     35 C         140.8365  137.6858  154.8830 C.3     1  UNL1        0.1183
     36 C         141.5971  136.4023  155.0380 C.ar    1  UNL1        0.0712
     37 N         140.8586  135.1012  155.1464 N.ar    1  UNL1       -0.2471
     38 C         141.6193  133.8177  155.3014 C.ar    1  UNL1        0.0985
     39 C         143.1184  133.8353  155.3480 C.ar    1  UNL1        0.0203
     40 C         143.8570  135.1364  155.2396 C.ar    1  UNL1       -0.0015
     41 C         143.0963  136.4198  155.0846 C.ar    1  UNL1       -0.0069
     42 C         143.8349  137.7209  154.9761 C.3     1  UNL1        0.0323
@<TRIPOS>UNITY_ATOM_ATTR
27 1
charge -1
@<TRIPOS>BOND
     1    19    20    1
     2    20    21   ar
     3    21    22   ar
     4    22    26    1
     5    26    27   ar
     6    26    28   ar
     7    22    23   ar
     8    23    24   ar
     9    24    25   ar
    10    25    13    1
    11    13    14   ar
    12    14    15   ar
    13    15    16   ar
    14    16     1    1
    15     1     2   am
    16     2     3    2
    17     2     4   am
    18     4    29    1
    19    29    30   ar
    20    30    31   ar
    21    31    32   ar
    22    32    33   ar
    23    33    34   ar
    24     4     5    1
    25     5     6    1
    26     6     7    1
    27     7     8    1
    28     8    35    1
    29    35    36    1
    30    36    37   ar
    31    37    38   ar
    32    38    39   ar
    33    39    40   ar
    34    40    41   ar
    35    41    42    1
    36     8     9    1
    37     9    10    1
    38     5    11    1
    39    11    12    2
    40    16    17   ar
    41    17    18   ar
    42    25    20   ar
    43    18    13   ar
    44    11     1   am
    45    34    29   ar
    46    10     5    1
    47    41    36   ar
@<TRIPOS>MOLECULE
*****
 42 47 0 0 0
SMALL
GASTEIGER

@<TRIPOS>ATOM
      1 N         139.4822  142.9011  160.4784 N.am    1  UNL1       -0.1907
      2 C         140.1370  144.0416  159.7568 C.2     1  UNL1        0.3231
      3 O         141.0036  145.0965  160.3778 O.2     1  UNL1       -0.2511
      4 N         139.7729  143.9417  158.3051 N.am    1  UNL1       -0.2071
      5 C         138.8930  142.7395  158.1294 C.3     1  UNL1        0.1405
      6 C         138.0282  141.5141  158.1084 C.3     1  UNL1        0.0450
      7 C         137.4326  141.0386  156.8165 C.3     1  UNL1        0.0746
      8 N         137.7019  141.7885  155.5456 N.3     1  UNL1       -0.2676
      9 C         138.5667  143.0138  155.5666 C.3     1  UNL1        0.0746
     10 C         139.1623  143.4894  156.8585 C.3     1  UNL1        0.0450
     11 C         138.7134  142.0964  159.4726 C.2     1  UNL1        0.2529
     12 O         137.9066  140.8649  159.7597 O.2     1  UNL1       -0.2724
     13 C         139.7731  142.0443  164.8865 C.ar    1  UNL1       -0.0002
     14 C         140.9075  141.6801  163.9751 C.ar    1  UNL1        0.0013
     15 C         140.8106  141.9657  162.5058 C.ar    1  UNL1        0.0154
     16 C         139.5792  142.6155  161.9478 C.ar    1  UNL1        0.0622
     17 C         138.4449  142.9797  162.8590 C.ar    1  UNL1        0.0154
     18 C         138.5418  142.6942  164.3284 C.ar    1  UNL1        0.0013
     19 C         138.8607  139.3971  165.9635 C.3     1  UNL1        0.0310
     20 C         139.4139  140.4352  166.8943 C.ar    1  UNL1       -0.0218
     21 C         139.5109  140.1495  168.3637 C.ar    1  UNL1       -0.0031
     22 C         140.0641  141.1875  169.2946 C.ar    1  UNL1        0.0137
     23 C         140.5203  142.5112  168.7561 C.ar    1  UNL1        0.0011
     24 C         140.4233  142.7968  167.2867 C.ar    1  UNL1       -0.0003
     25 C         139.8701  141.7588  166.3558 C.ar    1  UNL1       -0.0040
     26 C         140.1611  140.9019  170.7639 C.2     1  UNL1        0.0729
     27 O         139.7008  139.5800  171.3030 O.co2   1  UNL1       -0.5446
     28 O         140.7183  141.9383  171.6942 O.co2   1  UNL1       -0.5446
     29 C         140.2115  144.8793  157.2195 C.ar    1  UNL1        0.2276
     30 N         141.4654  144.5972  156.4461 N.ar    1  UNL1       -0.2117
     31 C         141.9039  145.5348  155.3606 C.ar    1  UNL1        0.1034
     32 C         141.0887  146.7546  155.0483 C.ar    1  UNL1        0.0414
     33 C         139.8348  147.0368  155.8218 C.ar    1  UNL1        0.1034
     34 N         139.3962  146.0991  156.9073 N.ar    1  UNL1       -0.2117
     35 C         137.1062  141.3129  154.2536 C.3     1  UNL1        0.1183
     36 C         137.3975  139.9272  153.7586 C.ar    1  UNL1        0.0712
     37 N         138.6592  139.6534  152.9949 N.ar    1  UNL1       -0.2471
     38 C         138.9505  138.2677  152.4998 C.ar    1  UNL1        0.0985
     39 C         137.9801  137.1559  152.7685 C.ar    1  UNL1        0.0203
     40 C         136.7185  137.4297  153.5323 C.ar    1  UNL1       -0.0015
     41 C         136.4272  138.8153  154.0273 C.ar    1  UNL1       -0.0069
     42 C         135.1655  139.0892  154.7910 C.3     1  UNL1        0.0323
@<TRIPOS>UNITY_ATOM_ATTR
27 1
charge -1
@<TRIPOS>BOND
     1    19    20    1
     2    20    21   ar
     3    21    22   ar
     4    22    26    1
     5    26    27   ar
     6    26    28   ar
     7    22    23   ar
     8    23    24   ar
     9    24    25   ar
    10    25    13    1
    11    13    14   ar
    12    14    15   ar
    13    15    16   ar
    14    16     1    1
    15     1     2   am
    16     2     3    2
    17     2     4   am
    18     4    29    1
    19    29    30   ar
    20    30    31   ar
    21    31    32   ar
    22    32    33   ar
    23    33    34   ar
    24     4     5    1
    25     5     6    1
    26     6     7    1
    27     7     8    1
    28     8    35    1
    29    35    36    1
    30    36    37   ar
    31    37    38   ar
    32    38    39   ar
    33    39    40   ar
    34    40    41   ar
    35    41    42    1
    36     8     9    1
    37     9    10    1
    38     5    11    1
    39    11    12    2
    40    16    17   ar
    41    17    18   ar
    42    25    20   ar
    43    18    13   ar
    44    11     1   am
    45    34    29   ar
    46    10     5    1
    47    41    36   ar
@<TRIPOS>MOLECULE
*****
 42 47 0 0 0
SMALL
GASTEIGER

@<TRIPOS>ATOM
      1 N         141.3901  143.1204  160.8224 N.am    1  UNL1       -0.1907
      2 C         140.4389  143.9755  160.0386 C.2     1  UNL1        0.3231
      3 O         139.2842  144.7514  160.5992 O.2     1  UNL1       -0.2511
      4 N         140.8454  143.9184  158.5959 N.am    1  UNL1       -0.2071
      5 C         142.0478  143.0280  158.4879 C.3     1  UNL1        0.1405
      6 C         143.2396  142.1186  158.5354 C.3     1  UNL1        0.0450
      7 C         143.9760  141.7807  157.2730 C.3     1  UNL1        0.0746
      8 N         143.5205  142.3523  155.9631 N.3     1  UNL1       -0.2676
      9 C         142.3286  143.2618  155.9156 C.3     1  UNL1        0.0746
     10 C         141.5922  143.5996  157.1780 C.3     1  UNL1        0.0450
     11 C         142.3844  142.5348  159.8639 C.2     1  UNL1        0.2529
     12 O         143.5165  141.6172  160.2191 O.2     1  UNL1       -0.2724
     13 C         141.2800  142.4326  165.2681 C.ar    1  UNL1       -0.0002
     14 C         142.2503  143.4169  164.6852 C.ar    1  UNL1        0.0013
     15 C         142.2870  143.6461  163.2033 C.ar    1  UNL1        0.0154
     16 C         141.3534  142.8911  162.3043 C.ar    1  UNL1        0.0622
     17 C         140.3831  141.9069  162.8871 C.ar    1  UNL1        0.0154
     18 C         140.3465  141.6776  164.3690 C.ar    1  UNL1        0.0013
     19 C         142.8437  140.1750  166.4758 C.3     1  UNL1        0.0310
     20 C         142.0252  141.0746  167.3538 C.ar    1  UNL1       -0.0218
     21 C         141.9885  140.8452  168.8358 C.ar    1  UNL1       -0.0031
     22 C         141.1700  141.7447  169.7139 C.ar    1  UNL1        0.0137
     23 C         140.3881  142.8735  169.1099 C.ar    1  UNL1        0.0011
     24 C         140.4248  143.1028  167.6280 C.ar    1  UNL1       -0.0003
     25 C         141.2433  142.2033  166.7500 C.ar    1  UNL1       -0.0040
     26 C         141.1333  141.5154  171.1958 C.2     1  UNL1        0.0729
     27 O         141.9483  142.3823  172.1092 O.co2   1  UNL1       -0.5446
     28 O         140.2816  140.4193  171.7643 O.co2   1  UNL1       -0.5446
     29 C         140.1684  144.6272  157.4604 C.ar    1  UNL1        0.2276
     30 N         140.5684  146.0288  157.1060 N.ar    1  UNL1       -0.2117
     31 C         139.8913  146.7375  155.9706 C.ar    1  UNL1        0.1034
     32 C         138.8143  146.0447  155.1894 C.ar    1  UNL1        0.0414
     33 C         138.4143  144.6431  155.5438 C.ar    1  UNL1        0.1034
     34 N         139.0914  143.9344  156.6793 N.ar    1  UNL1       -0.2117
     35 C         144.2569  142.0145  154.7007 C.3     1  UNL1        0.1183
     36 C         145.3269  142.9322  154.1881 C.ar    1  UNL1        0.0712
     37 N         144.9570  144.1249  153.3569 N.ar    1  UNL1       -0.2471
     38 C         146.0271  145.0427  152.8442 C.ar    1  UNL1        0.0985
     39 C         147.4668  144.7678  153.1627 C.ar    1  UNL1        0.0203
     40 C         147.8366  143.5752  153.9939 C.ar    1  UNL1       -0.0015
     41 C         146.7667  142.6574  154.5066 C.ar    1  UNL1       -0.0069
     42 C         147.1366  141.4648  155.3378 C.3     1  UNL1        0.0323
@<TRIPOS>UNITY_ATOM_ATTR
27 1
charge -1
@<TRIPOS>BOND
     1    19    20    1
     2    20    21   ar
     3    21    22   ar
     4    22    26    1
     5    26    27   ar
     6    26    28   ar
     7    22    23   ar
     8    23    24   ar
     9    24    25   ar
    10    25    13    1
    11    13    14   ar
    12    14    15   ar
    13    15    16   ar
    14    16     1    1
    15     1     2   am
    16     2     3    2
    17     2     4   am
    18     4    29    1
    19    29    30   ar
    20    30    31   ar
    21    31    32   ar
    22    32    33   ar
    23    33    34   ar
    24     4     5    1
    25     5     6    1
    26     6     7    1
    27     7     8    1
    28     8    35    1
    29    35    36    1
    30    36    37   ar
    31    37    38   ar
    32    38    39   ar
    33    39    40   ar
    34    40    41   ar
    35    41    42    1
    36     8     9    1
    37     9    10    1
    38     5    11    1
    39    11    12    2
    40    16    17   ar
    41    17    18   ar
    42    25    20   ar
    43    18    13   ar
    44    11     1   am
    45    34    29   ar
    46    10     5    1
    47    41    36   ar
