@<TRIPOS>MOLECULE
*****
 39 44 0 0 0
SMALL
GASTEIGER

@<TRIPOS>ATOM
      1 C         141.3650  141.5850  159.7659 C.3     1  UNL1        0.0605
      2 C         140.1901  142.4271  159.3652 C.3     1  UNL1        0.0460
      3 C         140.1802  143.6514  160.2319 C.3     1  UNL1        0.1247
      4 O         139.4480  144.9284  160.5199 O.3     1  UNL1       -0.3557
      5 C         140.1642  145.6322  161.6343 C.3     1  UNL1        0.1426
      6 C         141.3390  144.7901  162.0350 C.3     1  UNL1        0.0431
      7 C         141.3490  143.5659  161.1683 C.3     1  UNL1        0.0977
      8 C         142.0812  142.2888  160.8802 C.3     1  UNL1        0.0271
      9 C         142.5177  143.4804  162.1046 C.2     1  UNL1        0.2274
     10 O         143.8078  144.1626  161.7581 O.2     1  UNL1       -0.2748
     11 N         142.3962  142.7126  163.3876 N.am    1  UNL1       -0.2749
     12 C         143.5649  142.6271  164.3239 C.3     1  UNL1        0.1000
     13 C         143.4435  141.8594  165.6068 C.3     1  UNL1        0.0670
     14 C         142.1533  141.1772  165.9533 C.ar    1  UNL1        0.0583
     15 N         142.0319  140.4094  167.2363 N.ar    1  UNL1       -0.2484
     16 C         140.7417  139.7272  167.5828 C.ar    1  UNL1        0.1023
     17 C         139.5730  139.8128  166.6464 C.ar    1  UNL1        0.0902
     18 C         139.6944  140.5805  165.3635 C.ar    1  UNL1        0.0040
     19 C         140.9846  141.2627  165.0170 C.ar    1  UNL1        0.0113
     20 C         141.1061  142.0304  163.7341 C.3     1  UNL1        0.1213
     21 C         138.2828  139.1306  166.9929 C.3     1  UNL1        0.4200
     22 F         136.9926  138.4484  167.3394 F       1  UNL1       -0.1658
     23 F         138.4520  139.5388  168.4263 F       1  UNL1       -0.1658
     24 F         138.1137  138.7223  165.5594 F       1  UNL1       -0.1658
     25 C         142.5356  137.6400  157.9448 C.3     1  UNL1        0.0251
     26 C         141.8771  138.6901  157.1000 C.3     1  UNL1        0.0217
     27 C         141.4869  140.0051  157.7070 C.3     1  UNL1        0.0724
     28 N         141.7552  140.2700  159.1588 N.3     1  UNL1       -0.2738
     29 C         142.4137  139.2199  160.0036 C.3     1  UNL1        0.0724
     30 C         142.8039  137.9049  159.3966 C.3     1  UNL1        0.0217
     31 C         143.7062  133.6950  156.1236 C.ar    1  UNL1        0.0140
     32 C         143.2823  134.8319  155.2416 C.ar    1  UNL1        0.0008
     33 C         142.8922  136.1469  155.8487 C.ar    1  UNL1       -0.0042
     34 C         142.9258  136.3250  157.3377 C.ar    1  UNL1       -0.0224
     35 C         143.3496  135.1881  158.2197 C.ar    1  UNL1       -0.0042
     36 C         143.7398  133.8731  157.6126 C.ar    1  UNL1        0.0008
     37 O         145.2440  131.6012  156.0879 O.co2   1  UNL1       -0.5446
     38 C         144.0964  132.3800  155.5165 C.2     1  UNL1        0.0729
     39 O         143.3389  131.8438  154.3381 O.co2   1  UNL1       -0.5446
@<TRIPOS>UNITY_ATOM_ATTR
37 1
charge -1
@<TRIPOS>BOND
     1    37    38   ar
     2    38    39   ar
     3    38    31    1
     4    31    32   ar
     5    32    33   ar
     6    33    34   ar
     7    34    25    1
     8    25    26    1
     9    26    27    1
    10    27    28    1
    11     1    28    1
    12     1     2    1
    13     3     2    1
    14     3     4    1
    15     4     5    1
    16     5     6    1
    17     6     7    1
    18     7     9    1
    19     9    10    2
    20     9    11   am
    21    11    12    1
    22    12    13    1
    23    13    14    1
    24    14    15   ar
    25    15    16   ar
    26    16    17   ar
    27    17    21    1
    28    21    22    1
    29    21    23    1
    30    21    24    1
    31    17    18   ar
    32    18    19   ar
    33    19    20    1
    34     7     8    1
    35    28    29    1
    36    29    30    1
    37    34    35   ar
    38    35    36   ar
    39    36    31   ar
    40    30    25    1
    41     8     1    1
    42     7     3    1
    43    20    11    1
    44    19    14   ar
@<TRIPOS>MOLECULE
*****
 39 44 0 0 0
SMALL
GASTEIGER

@<TRIPOS>ATOM
      1 C         142.8196  139.7961  158.2703 C.3     1  UNL1        0.0605
      2 C         144.1755  140.4130  158.0942 C.3     1  UNL1        0.0460
      3 C         144.5141  140.3789  156.6334 C.3     1  UNL1        0.1247
      4 O         145.5613  140.7391  155.6216 O.3     1  UNL1       -0.3557
      5 C         145.0619  140.3237  154.2696 C.3     1  UNL1        0.1426
      6 C         143.7060  139.7068  154.4456 C.3     1  UNL1        0.0431
      7 C         143.3674  139.7409  155.9065 C.3     1  UNL1        0.0977
      8 C         142.3202  139.3807  156.9183 C.3     1  UNL1        0.0271
      9 C         142.2208  139.1030  155.1798 C.2     1  UNL1        0.2274
     10 O         141.2543  139.9535  154.4101 O.2     1  UNL1       -0.2748
     11 N         142.0407  137.6144  155.2227 N.am    1  UNL1       -0.2749
     12 C         140.8941  136.9764  154.4959 C.3     1  UNL1        0.1000
     13 C         140.7140  135.4879  154.5388 C.3     1  UNL1        0.0670
     14 C         141.6805  134.6374  155.3085 C.ar    1  UNL1        0.0583
     15 N         141.5004  133.1488  155.3514 N.ar    1  UNL1       -0.2484
     16 C         142.4669  132.2983  156.1210 C.ar    1  UNL1        0.1023
     17 C         143.6136  132.9363  156.8478 C.ar    1  UNL1        0.0902
     18 C         143.7937  134.4248  156.8049 C.ar    1  UNL1        0.0040
     19 C         142.8271  135.2753  156.0352 C.ar    1  UNL1        0.0113
     20 C         143.0072  136.7638  155.9923 C.3     1  UNL1        0.1213
     21 C         144.5801  132.0858  157.6175 C.3     1  UNL1        0.4200
     22 F         145.5467  131.2352  158.3872 F       1  UNL1       -0.1658
     23 F         144.1777  130.8918  156.8035 F       1  UNL1       -0.1658
     24 F         144.9825  133.2797  158.4315 F       1  UNL1       -0.1658
     25 C         140.6339  139.2816  162.1700 C.3     1  UNL1        0.0251
     26 C         140.6817  140.6272  161.5089 C.3     1  UNL1        0.0217
     27 C         141.4103  140.7987  160.2090 C.3     1  UNL1        0.0724
     28 N         142.0910  139.6246  159.5703 N.3     1  UNL1       -0.2738
     29 C         142.0432  138.2790  160.2314 C.3     1  UNL1        0.0724
     30 C         141.3146  138.1075  161.5313 C.3     1  UNL1        0.0217
     31 C         138.4481  138.7673  166.0698 C.ar    1  UNL1        0.0140
     32 C         138.7855  140.1425  165.5748 C.ar    1  UNL1        0.0008
     33 C         139.5140  140.3139  164.2749 C.ar    1  UNL1       -0.0042
     34 C         139.9053  139.1101  163.4700 C.ar    1  UNL1       -0.0224
     35 C         139.5680  137.7349  163.9650 C.ar    1  UNL1       -0.0042
     36 C         138.8394  137.5635  165.2649 C.ar    1  UNL1        0.0008
     37 O         138.1843  139.3298  168.5925 O.co2   1  UNL1       -0.5446
     38 C         137.7195  138.5958  167.3697 C.2     1  UNL1        0.0729
     39 O         136.5262  137.6903  167.4468 O.co2   1  UNL1       -0.5446
@<TRIPOS>UNITY_ATOM_ATTR
37 1
charge -1
@<TRIPOS>BOND
     1    37    38   ar
     2    38    39   ar
     3    38    31    1
     4    31    32   ar
     5    32    33   ar
     6    33    34   ar
     7    34    25    1
     8    25    26    1
     9    26    27    1
    10    27    28    1
    11     1    28    1
    12     1     2    1
    13     3     2    1
    14     3     4    1
    15     4     5    1
    16     5     6    1
    17     6     7    1
    18     7     9    1
    19     9    10    2
    20     9    11   am
    21    11    12    1
    22    12    13    1
    23    13    14    1
    24    14    15   ar
    25    15    16   ar
    26    16    17   ar
    27    17    21    1
    28    21    22    1
    29    21    23    1
    30    21    24    1
    31    17    18   ar
    32    18    19   ar
    33    19    20    1
    34     7     8    1
    35    28    29    1
    36    29    30    1
    37    34    35   ar
    38    35    36   ar
    39    36    31   ar
    40    30    25    1
    41     8     1    1
    42     7     3    1
    43    20    11    1
    44    19    14   ar
@<TRIPOS>MOLECULE
*****
 39 44 0 0 0
SMALL
GASTEIGER

@<TRIPOS>ATOM
      1 C         139.4084  141.2966  160.8110 C.3     1  UNL1        0.0605
      2 C         138.0494  140.8348  160.3755 C.3     1  UNL1        0.0460
      3 C         138.0528  140.7302  158.8791 C.3     1  UNL1        0.1247
      4 O         137.2150  140.3802  157.6852 O.3     1  UNL1       -0.3557
      5 C         138.0584  140.5612  156.4580 C.3     1  UNL1        0.1426
      6 C         139.4175  141.0230  156.8935 C.3     1  UNL1        0.0431
      7 C         139.4140  141.1275  158.3898 C.3     1  UNL1        0.0977
      8 C         140.2518  141.4776  159.5838 C.3     1  UNL1        0.0271
      9 C         140.7752  141.5248  157.9006 C.2     1  UNL1        0.2274
     10 O         141.2076  142.9595  157.9692 O.2     1  UNL1       -0.2748
     11 N         141.7040  140.4874  157.3427 N.am    1  UNL1       -0.2749
     12 C         143.0651  140.8847  156.8534 C.3     1  UNL1        0.1000
     13 C         143.9938  139.8473  156.2955 C.3     1  UNL1        0.0670
     14 C         143.5613  138.4126  156.2269 C.ar    1  UNL1        0.0583
     15 N         144.4901  137.3752  155.6690 N.ar    1  UNL1       -0.2484
     16 C         144.0577  135.9405  155.6003 C.ar    1  UNL1        0.1023
     17 C         142.6965  135.5433  156.0896 C.ar    1  UNL1        0.0902
     18 C         141.7678  136.5807  156.6475 C.ar    1  UNL1        0.0040
     19 C         142.2002  138.0153  156.7161 C.ar    1  UNL1        0.0113
     20 C         141.2715  139.0527  157.2740 C.3     1  UNL1        0.1213
     21 C         142.2640  134.1086  156.0210 C.3     1  UNL1        0.4200
     22 F         141.8316  132.6739  155.9523 F       1  UNL1       -0.1658
     23 F         143.5113  133.6979  156.7459 F       1  UNL1       -0.1658
     24 F         141.0167  134.5192  155.2960 F       1  UNL1       -0.1658
     25 C         140.7245  142.0136  165.0541 C.3     1  UNL1        0.0251
     26 C         139.3110  141.6022  164.7666 C.3     1  UNL1        0.0217
     27 C         138.8723  141.3632  163.3523 C.3     1  UNL1        0.0724
     28 N         139.8471  141.5356  162.2254 N.3     1  UNL1       -0.2738
     29 C         141.2607  141.9471  162.5129 C.3     1  UNL1        0.0724
     30 C         141.6994  142.1861  163.9272 C.3     1  UNL1        0.0217
     31 C         142.0405  142.7306  169.2972 C.ar    1  UNL1        0.0140
     32 C         140.6454  143.0844  168.8747 C.ar    1  UNL1        0.0008
     33 C         140.2068  142.8454  167.4603 C.ar    1  UNL1       -0.0042
     34 C         141.1632  142.2526  166.4685 C.ar    1  UNL1       -0.0224
     35 C         142.5583  141.8988  166.8910 C.ar    1  UNL1       -0.0042
     36 C         142.9969  142.1378  168.3053 C.ar    1  UNL1        0.0008
     37 O         141.8676  142.1793  171.8302 O.co2   1  UNL1       -0.5446
     38 C         142.4792  142.9696  170.7116 C.2     1  UNL1        0.0729
     39 O         143.5295  143.9989  171.0073 O.co2   1  UNL1       -0.5446
@<TRIPOS>UNITY_ATOM_ATTR
37 1
charge -1
@<TRIPOS>BOND
     1    37    38   ar
     2    38    39   ar
     3    38    31    1
     4    31    32   ar
     5    32    33   ar
     6    33    34   ar
     7    34    25    1
     8    25    26    1
     9    26    27    1
    10    27    28    1
    11     1    28    1
    12     1     2    1
    13     3     2    1
    14     3     4    1
    15     4     5    1
    16     5     6    1
    17     6     7    1
    18     7     9    1
    19     9    10    2
    20     9    11   am
    21    11    12    1
    22    12    13    1
    23    13    14    1
    24    14    15   ar
    25    15    16   ar
    26    16    17   ar
    27    17    21    1
    28    21    22    1
    29    21    23    1
    30    21    24    1
    31    17    18   ar
    32    18    19   ar
    33    19    20    1
    34     7     8    1
    35    28    29    1
    36    29    30    1
    37    34    35   ar
    38    35    36   ar
    39    36    31   ar
    40    30    25    1
    41     8     1    1
    42     7     3    1
    43    20    11    1
    44    19    14   ar
@<TRIPOS>MOLECULE
*****
 39 44 0 0 0
SMALL
GASTEIGER

@<TRIPOS>ATOM
      1 C         140.0479  144.0080  160.8211 C.3     1  UNL1        0.0605
      2 C         140.2835  145.4227  160.3815 C.3     1  UNL1        0.0460
      3 C         140.1971  145.4633  158.8845 C.3     1  UNL1        0.1247
      4 O         140.2893  146.3627  157.6876 O.3     1  UNL1       -0.3557
      5 C         140.0572  145.5290  156.4623 C.3     1  UNL1        0.1426
      6 C         139.8217  144.1144  156.9020 C.3     1  UNL1        0.0431
      7 C         139.9081  144.0737  158.3990 C.3     1  UNL1        0.0977
      8 C         139.8159  143.1744  159.5959 C.3     1  UNL1        0.0271
      9 C         139.6191  142.6842  157.9135 C.2     1  UNL1        0.2274
     10 O         138.2264  142.1339  158.0002 O.2     1  UNL1       -0.2748
     11 N         140.7228  141.8449  157.3412 N.am    1  UNL1       -0.2749
     12 C         140.4338  140.4554  156.8558 C.3     1  UNL1        0.1000
     13 C         141.5376  139.6162  156.2836 C.3     1  UNL1        0.0670
     14 C         142.9303  140.1665  156.1968 C.ar    1  UNL1        0.0583
     15 N         144.0340  139.3272  155.6246 N.ar    1  UNL1       -0.2484
     16 C         145.4267  139.8775  155.5378 C.ar    1  UNL1        0.1023
     17 C         145.7157  141.2671  156.0233 C.ar    1  UNL1        0.0902
     18 C         144.6120  142.1063  156.5955 C.ar    1  UNL1        0.0040
     19 C         143.2193  141.5560  156.6823 C.ar    1  UNL1        0.0113
     20 C         142.1155  142.3952  157.2545 C.3     1  UNL1        0.1213
     21 C         147.1084  141.8174  155.9366 C.3     1  UNL1        0.4200
     22 F         148.5011  142.3677  155.8498 F       1  UNL1       -0.1658
     23 F         147.2587  141.2213  154.5683 F       1  UNL1       -0.1658
     24 F         146.9581  142.4134  157.3048 F       1  UNL1       -0.1658
     25 C         140.0387  142.5255  165.0699 C.3     1  UNL1        0.0251
     26 C         140.3420  141.5794  163.9460 C.3     1  UNL1        0.0217
     27 C         140.3451  142.0736  162.5298 C.3     1  UNL1        0.0724
     28 N         140.0449  143.5138  162.2374 N.3     1  UNL1       -0.2738
     29 C         139.7416  144.4599  163.3612 C.3     1  UNL1        0.0724
     30 C         139.7385  143.9657  164.7775 C.3     1  UNL1        0.0217
     31 C         140.0296  141.0429  169.3186 C.ar    1  UNL1        0.0140
     32 C         140.4336  142.4558  169.0182 C.ar    1  UNL1        0.0008
     33 C         140.4367  142.9500  167.6020 C.ar    1  UNL1       -0.0042
     34 C         140.0357  142.0312  166.4861 C.ar    1  UNL1       -0.0224
     35 C         139.6317  140.6183  166.7865 C.ar    1  UNL1       -0.0042
     36 C         139.6286  140.1241  168.2028 C.ar    1  UNL1        0.0008
     37 O         140.8081  141.2796  171.7860 O.co2   1  UNL1       -0.5446
     38 C         140.0266  140.5486  170.7349 C.2     1  UNL1        0.0729
     39 O         139.2420  139.3234  171.0999 O.co2   1  UNL1       -0.5446
@<TRIPOS>UNITY_ATOM_ATTR
37 1
charge -1
@<TRIPOS>BOND
     1    37    38   ar
     2    38    39   ar
     3    38    31    1
     4    31    32   ar
     5    32    33   ar
     6    33    34   ar
     7    34    25    1
     8    25    26    1
     9    26    27    1
    10    27    28    1
    11     1    28    1
    12     1     2    1
    13     3     2    1
    14     3     4    1
    15     4     5    1
    16     5     6    1
    17     6     7    1
    18     7     9    1
    19     9    10    2
    20     9    11   am
    21    11    12    1
    22    12    13    1
    23    13    14    1
    24    14    15   ar
    25    15    16   ar
    26    16    17   ar
    27    17    21    1
    28    21    22    1
    29    21    23    1
    30    21    24    1
    31    17    18   ar
    32    18    19   ar
    33    19    20    1
    34     7     8    1
    35    28    29    1
    36    29    30    1
    37    34    35   ar
    38    35    36   ar
    39    36    31   ar
    40    30    25    1
    41     8     1    1
    42     7     3    1
    43    20    11    1
    44    19    14   ar
@<TRIPOS>MOLECULE
*****
 39 44 0 0 0
SMALL
GASTEIGER

@<TRIPOS>ATOM
      1 C         140.3054  141.8037  160.4461 C.3     1  UNL1        0.0605
      2 C         138.9691  142.4825  160.5051 C.3     1  UNL1        0.0460
      3 C         139.0685  143.6178  161.4804 C.3     1  UNL1        0.1247
      4 O         138.3041  144.7390  162.1196 O.3     1  UNL1       -0.3557
      5 C         139.2294  145.4548  163.0584 C.3     1  UNL1        0.1426
      6 C         140.5658  144.7760  162.9994 C.3     1  UNL1        0.0431
      7 C         140.4664  143.6407  162.0242 C.3     1  UNL1        0.0977
      8 C         141.2308  142.5195  161.3850 C.3     1  UNL1        0.0271
      9 C         141.8641  143.6636  162.5679 C.2     1  UNL1        0.2274
     10 O         142.9872  144.1952  161.7276 O.2     1  UNL1       -0.2748
     11 N         142.1389  143.1549  163.9521 N.am    1  UNL1       -0.2749
     12 C         143.5366  143.1778  164.4958 C.3     1  UNL1        0.1000
     13 C         143.8113  142.6692  165.8799 C.3     1  UNL1        0.0670
     14 C         142.6883  142.1376  166.7203 C.ar    1  UNL1        0.0583
     15 N         142.9630  141.6290  168.1044 N.ar    1  UNL1       -0.2484
     16 C         141.8400  141.0974  168.9448 C.ar    1  UNL1        0.1023
     17 C         140.4421  141.0745  168.4010 C.ar    1  UNL1        0.0902
     18 C         140.1674  141.5832  167.0169 C.ar    1  UNL1        0.0040
     19 C         141.2905  142.1147  166.1765 C.ar    1  UNL1        0.0113
     20 C         141.0158  142.6234  164.7924 C.3     1  UNL1        0.1213
     21 C         139.3191  140.5430  169.2413 C.3     1  UNL1        0.4200
     22 F         138.1960  140.0114  170.0817 F       1  UNL1       -0.1658
     23 F         139.7000  141.4840  170.3456 F       1  UNL1       -0.1658
     24 F         138.9382  139.6020  168.1371 F       1  UNL1       -0.1658
     25 C         141.3545  138.2448  157.8999 C.3     1  UNL1        0.0251
     26 C         139.9319  138.4769  158.3148 C.3     1  UNL1        0.0217
     27 C         139.5822  139.6631  159.1636 C.3     1  UNL1        0.0724
     28 N         140.6551  140.6173  159.5974 N.3     1  UNL1       -0.2738
     29 C         142.0778  140.3853  159.1824 C.3     1  UNL1        0.0724
     30 C         142.4275  139.1990  158.3336 C.3     1  UNL1        0.0217
     31 C         142.4034  134.6859  155.3535 C.ar    1  UNL1        0.0140
     32 C         141.1268  135.4340  155.1075 C.ar    1  UNL1        0.0008
     33 C         140.7772  136.6203  155.9562 C.ar    1  UNL1       -0.0042
     34 C         141.7042  137.0584  157.0511 C.ar    1  UNL1       -0.0224
     35 C         142.9808  136.3104  157.2971 C.ar    1  UNL1       -0.0042
     36 C         143.3304  135.1241  156.4484 C.ar    1  UNL1        0.0008
     37 O         142.1954  133.3794  153.1175 O.co2   1  UNL1       -0.5446
     38 C         142.7531  133.4995  154.5047 C.2     1  UNL1        0.0729
     39 O         143.6605  132.4334  155.0433 O.co2   1  UNL1       -0.5446
@<TRIPOS>UNITY_ATOM_ATTR
37 1
charge -1
@<TRIPOS>BOND
     1    37    38   ar
     2    38    39   ar
     3    38    31    1
     4    31    32   ar
     5    32    33   ar
     6    33    34   ar
     7    34    25    1
     8    25    26    1
     9    26    27    1
    10    27    28    1
    11     1    28    1
    12     1     2    1
    13     3     2    1
    14     3     4    1
    15     4     5    1
    16     5     6    1
    17     6     7    1
    18     7     9    1
    19     9    10    2
    20     9    11   am
    21    11    12    1
    22    12    13    1
    23    13    14    1
    24    14    15   ar
    25    15    16   ar
    26    16    17   ar
    27    17    21    1
    28    21    22    1
    29    21    23    1
    30    21    24    1
    31    17    18   ar
    32    18    19   ar
    33    19    20    1
    34     7     8    1
    35    28    29    1
    36    29    30    1
    37    34    35   ar
    38    35    36   ar
    39    36    31   ar
    40    30    25    1
    41     8     1    1
    42     7     3    1
    43    20    11    1
    44    19    14   ar
@<TRIPOS>MOLECULE
*****
 39 44 0 0 0
SMALL
GASTEIGER

@<TRIPOS>ATOM
      1 C         140.3588  139.2915  160.9531 C.3     1  UNL1        0.0605
      2 C         139.3453  138.4272  160.2634 C.3     1  UNL1        0.0460
      3 C         139.7980  138.2212  158.8483 C.3     1  UNL1        0.1247
      4 O         139.4514  137.5597  157.5474 O.3     1  UNL1       -0.3557
      5 C         140.5306  137.8878  156.5585 C.3     1  UNL1        0.1426
      6 C         141.5441  138.7520  157.2483 C.3     1  UNL1        0.0431
      7 C         141.0914  138.9581  158.6634 C.3     1  UNL1        0.0977
      8 C         141.4380  139.6196  159.9643 C.3     1  UNL1        0.0271
      9 C         142.3848  139.6950  158.4786 C.2     1  UNL1        0.2274
     10 O         143.6713  139.0805  158.9447 O.2     1  UNL1       -0.2748
     11 N         142.3916  141.0464  157.8277 N.am    1  UNL1       -0.2749
     12 C         143.6850  141.7833  157.6429 C.3     1  UNL1        0.1000
     13 C         143.6918  143.1347  156.9920 C.3     1  UNL1        0.0670
     14 C         142.4052  143.7492  156.5259 C.ar    1  UNL1        0.0583
     15 N         142.4121  145.1006  155.8750 N.ar    1  UNL1       -0.2484
     16 C         141.1255  145.7151  155.4089 C.ar    1  UNL1        0.1023
     17 C         139.8321  144.9781  155.5938 C.ar    1  UNL1        0.0902
     18 C         139.8253  143.6268  156.2446 C.ar    1  UNL1        0.0040
     19 C         141.1119  143.0123  156.7107 C.ar    1  UNL1        0.0113
     20 C         141.1051  141.6609  157.3616 C.3     1  UNL1        0.1213
     21 C         138.5456  145.5926  155.1277 C.3     1  UNL1        0.4200
     22 F         137.2591  146.2071  154.6616 F       1  UNL1       -0.1658
     23 F         137.8008  144.3675  155.5684 F       1  UNL1       -0.1658
     24 F         139.2904  146.8178  154.6870 F       1  UNL1       -0.1658
     25 C         140.1916  140.6599  165.2368 C.3     1  UNL1        0.0251
     26 C         139.0763  139.8326  164.6696 C.3     1  UNL1        0.0217
     27 C         139.1320  139.3765  163.2418 C.3     1  UNL1        0.0724
     28 N         140.3030  139.7476  162.3811 N.3     1  UNL1       -0.2738
     29 C         141.4184  140.5749  162.9482 C.3     1  UNL1        0.0724
     30 C         141.3627  141.0310  164.3761 C.3     1  UNL1        0.0217
     31 C         140.0242  142.0281  169.5204 C.ar    1  UNL1        0.0140
     32 C         139.5418  140.6565  169.1519 C.ar    1  UNL1        0.0008
     33 C         139.5976  140.2004  167.7240 C.ar    1  UNL1       -0.0042
     34 C         140.1358  141.1160  166.6647 C.ar    1  UNL1       -0.0224
     35 C         140.6182  142.4876  167.0333 C.ar    1  UNL1       -0.0042
     36 C         140.5624  142.9437  168.4611 C.ar    1  UNL1        0.0008
     37 O         138.9280  143.4751  171.3791 O.co2   1  UNL1       -0.5446
     38 C         139.9685  142.4842  170.9484 C.2     1  UNL1        0.0729
     39 O         140.9532  141.9494  171.9455 O.co2   1  UNL1       -0.5446
@<TRIPOS>UNITY_ATOM_ATTR
37 1
charge -1
@<TRIPOS>BOND
     1    37    38   ar
     2    38    39   ar
     3    38    31    1
     4    31    32   ar
     5    32    33   ar
     6    33    34   ar
     7    34    25    1
     8    25    26    1
     9    26    27    1
    10    27    28    1
    11     1    28    1
    12     1     2    1
    13     3     2    1
    14     3     4    1
    15     4     5    1
    16     5     6    1
    17     6     7    1
    18     7     9    1
    19     9    10    2
    20     9    11   am
    21    11    12    1
    22    12    13    1
    23    13    14    1
    24    14    15   ar
    25    15    16   ar
    26    16    17   ar
    27    17    21    1
    28    21    22    1
    29    21    23    1
    30    21    24    1
    31    17    18   ar
    32    18    19   ar
    33    19    20    1
    34     7     8    1
    35    28    29    1
    36    29    30    1
    37    34    35   ar
    38    35    36   ar
    39    36    31   ar
    40    30    25    1
    41     8     1    1
    42     7     3    1
    43    20    11    1
    44    19    14   ar
@<TRIPOS>MOLECULE
*****
 39 44 0 0 0
SMALL
GASTEIGER

@<TRIPOS>ATOM
      1 C         140.4456  143.9640  160.7670 C.3     1  UNL1        0.0605
      2 C         140.1274  145.3533  160.2995 C.3     1  UNL1        0.0460
      3 C         140.3375  145.4023  158.8151 C.3     1  UNL1        0.1247
      4 O         140.2707  146.2912  157.6087 O.3     1  UNL1       -0.3557
      5 C         140.6775  145.4817  156.4132 C.3     1  UNL1        0.1426
      6 C         140.9957  144.0924  156.8807 C.3     1  UNL1        0.0431
      7 C         140.7856  144.0433  158.3651 C.3     1  UNL1        0.0977
      8 C         140.8524  143.1544  159.5715 C.3     1  UNL1        0.0271
      9 C         141.2337  142.6843  157.9153 C.2     1  UNL1        0.2274
     10 O         142.6501  142.2475  158.1450 O.2     1  UNL1       -0.2748
     11 N         140.2653  141.7622  157.2356 N.am    1  UNL1       -0.2749
     12 C         140.7133  140.4032  156.7858 C.3     1  UNL1        0.1000
     13 C         139.7449  139.4811  156.1062 C.3     1  UNL1        0.0670
     14 C         138.3285  139.9180  155.8765 C.ar    1  UNL1        0.0583
     15 N         137.3600  138.9958  155.1968 N.ar    1  UNL1       -0.2484
     16 C         135.9436  139.4327  154.9671 C.ar    1  UNL1        0.1023
     17 C         135.4955  140.7917  155.4170 C.ar    1  UNL1        0.0902
     18 C         136.4639  141.7138  156.0966 C.ar    1  UNL1        0.0040
     19 C         137.8804  141.2769  156.3263 C.ar    1  UNL1        0.0113
     20 C         138.8488  142.1990  157.0059 C.3     1  UNL1        0.1213
     21 C         134.0791  141.2286  155.1873 C.3     1  UNL1        0.4200
     22 F         132.6626  141.6654  154.9575 F       1  UNL1       -0.1658
     23 F         133.6834  140.6408  156.5093 F       1  UNL1       -0.1658
     24 F         134.4748  141.8164  153.8652 F       1  UNL1       -0.1658
     25 C         140.2196  142.4845  165.0108 C.3     1  UNL1        0.0251
     26 C         141.2117  141.8844  164.0592 C.3     1  UNL1        0.0217
     27 C         141.2871  142.3776  162.6446 C.3     1  UNL1        0.0724
     28 N         140.3703  143.4708  162.1816 N.3     1  UNL1       -0.2738
     29 C         139.3782  144.0709  163.1333 C.3     1  UNL1        0.0724
     30 C         139.3029  143.5778  164.5479 C.3     1  UNL1        0.0217
     31 C         139.9936  141.0050  169.2546 C.ar    1  UNL1        0.0140
     32 C         139.6362  140.0897  168.1212 C.ar    1  UNL1        0.0008
     33 C         139.7115  140.5829  166.7067 C.ar    1  UNL1       -0.0042
     34 C         140.1443  141.9914  166.4255 C.ar    1  UNL1       -0.0224
     35 C         140.5017  142.9066  167.5588 C.ar    1  UNL1       -0.0042
     36 C         140.4264  142.4134  168.9734 C.ar    1  UNL1        0.0008
     37 O         139.0010  139.3782  171.0205 O.co2   1  UNL1       -0.5446
     38 C         139.9183  140.5118  170.6692 C.2     1  UNL1        0.0729
     39 O         140.7604  141.1522  171.7326 O.co2   1  UNL1       -0.5446
@<TRIPOS>UNITY_ATOM_ATTR
37 1
charge -1
@<TRIPOS>BOND
     1    37    38   ar
     2    38    39   ar
     3    38    31    1
     4    31    32   ar
     5    32    33   ar
     6    33    34   ar
     7    34    25    1
     8    25    26    1
     9    26    27    1
    10    27    28    1
    11     1    28    1
    12     1     2    1
    13     3     2    1
    14     3     4    1
    15     4     5    1
    16     5     6    1
    17     6     7    1
    18     7     9    1
    19     9    10    2
    20     9    11   am
    21    11    12    1
    22    12    13    1
    23    13    14    1
    24    14    15   ar
    25    15    16   ar
    26    16    17   ar
    27    17    21    1
    28    21    22    1
    29    21    23    1
    30    21    24    1
    31    17    18   ar
    32    18    19   ar
    33    19    20    1
    34     7     8    1
    35    28    29    1
    36    29    30    1
    37    34    35   ar
    38    35    36   ar
    39    36    31   ar
    40    30    25    1
    41     8     1    1
    42     7     3    1
    43    20    11    1
    44    19    14   ar
@<TRIPOS>MOLECULE
*****
 39 44 0 0 0
SMALL
GASTEIGER

@<TRIPOS>ATOM
      1 C         140.8584  139.0834  157.2614 C.3     1  UNL1        0.0605
      2 C         141.3484  140.4179  156.7828 C.3     1  UNL1        0.0460
      3 C         140.5294  141.4803  157.4540 C.3     1  UNL1        0.1247
      4 O         140.3260  142.9616  157.5730 O.3     1  UNL1       -0.3557
      5 C         139.2041  143.1993  158.5400 C.3     1  UNL1        0.1426
      6 C         138.7141  141.8648  159.0185 C.3     1  UNL1        0.0431
      7 C         139.5332  140.8024  158.3474 C.3     1  UNL1        0.0977
      8 C         139.7366  139.3210  158.2283 C.3     1  UNL1        0.0271
      9 C         138.5370  140.1245  159.2407 C.2     1  UNL1        0.2274
     10 O         137.1080  139.9903  158.8048 O.2     1  UNL1       -0.2748
     11 N         138.9698  139.5806  160.5700 N.am    1  UNL1       -0.2749
     12 C         137.9737  138.9027  161.4633 C.3     1  UNL1        0.1000
     13 C         138.4065  138.3589  162.7926 C.3     1  UNL1        0.0670
     14 C         139.8355  138.4930  163.2285 C.ar    1  UNL1        0.0583
     15 N         140.2683  137.9492  164.5578 N.ar    1  UNL1       -0.2484
     16 C         141.6973  138.0833  164.9937 C.ar    1  UNL1        0.1023
     17 C         142.6935  138.7612  164.1003 C.ar    1  UNL1        0.0902
     18 C         142.2607  139.3050  162.7710 C.ar    1  UNL1        0.0040
     19 C         140.8317  139.1709  162.3351 C.ar    1  UNL1        0.0113
     20 C         140.3988  139.7147  161.0059 C.3     1  UNL1        0.1213
     21 C         144.1225  138.8954  164.5361 C.3     1  UNL1        0.4200
     22 F         145.5515  139.0295  164.9720 F       1  UNL1       -0.1658
     23 F         143.7715  138.3032  165.8689 F       1  UNL1       -0.1658
     24 F         144.4735  139.4875  163.2034 F       1  UNL1       -0.1658
     25 C         142.4708  135.0713  156.0151 C.3     1  UNL1        0.0251
     26 C         143.2127  135.8973  157.0237 C.3     1  UNL1        0.0217
     27 C         142.6752  137.2347  157.4391 C.3     1  UNL1        0.0724
     28 N         141.3959  137.7460  156.8459 N.3     1  UNL1       -0.2738
     29 C         140.6541  136.9199  155.8373 C.3     1  UNL1        0.0724
     30 C         141.1915  135.5826  155.4219 C.3     1  UNL1        0.0217
     31 C         144.0832  131.0592  154.7687 C.ar    1  UNL1        0.0140
     32 C         143.0280  131.7329  153.9426 C.ar    1  UNL1        0.0008
     33 C         142.4905  133.0702  154.3581 C.ar    1  UNL1       -0.0042
     34 C         143.0083  133.7339  155.5996 C.ar    1  UNL1       -0.0224
     35 C         144.0636  133.0602  156.4257 C.ar    1  UNL1       -0.0042
     36 C         144.6010  131.7228  156.0103 C.ar    1  UNL1        0.0008
     37 O         144.8962  128.6703  155.3869 O.co2   1  UNL1       -0.5446
     38 C         144.6207  129.7218  154.3533 C.2     1  UNL1        0.0729
     39 O         144.8828  129.4361  152.9043 O.co2   1  UNL1       -0.5446
@<TRIPOS>UNITY_ATOM_ATTR
37 1
charge -1
@<TRIPOS>BOND
     1    37    38   ar
     2    38    39   ar
     3    38    31    1
     4    31    32   ar
     5    32    33   ar
     6    33    34   ar
     7    34    25    1
     8    25    26    1
     9    26    27    1
    10    27    28    1
    11     1    28    1
    12     1     2    1
    13     3     2    1
    14     3     4    1
    15     4     5    1
    16     5     6    1
    17     6     7    1
    18     7     9    1
    19     9    10    2
    20     9    11   am
    21    11    12    1
    22    12    13    1
    23    13    14    1
    24    14    15   ar
    25    15    16   ar
    26    16    17   ar
    27    17    21    1
    28    21    22    1
    29    21    23    1
    30    21    24    1
    31    17    18   ar
    32    18    19   ar
    33    19    20    1
    34     7     8    1
    35    28    29    1
    36    29    30    1
    37    34    35   ar
    38    35    36   ar
    39    36    31   ar
    40    30    25    1
    41     8     1    1
    42     7     3    1
    43    20    11    1
    44    19    14   ar
@<TRIPOS>MOLECULE
*****
 39 44 0 0 0
SMALL
GASTEIGER

@<TRIPOS>ATOM
      1 C         143.5171  142.1342  160.6648 C.3     1  UNL1        0.0605
      2 C         144.8002  142.6287  160.0658 C.3     1  UNL1        0.0460
      3 C         144.7585  142.3568  158.5912 C.3     1  UNL1        0.1247
      4 O         145.5257  142.4944  157.3096 O.3     1  UNL1       -0.3557
      5 C         144.6909  141.9168  156.2053 C.3     1  UNL1        0.1426
      6 C         143.4077  141.4222  156.8044 C.3     1  UNL1        0.0431
      7 C         143.4495  141.6941  158.2789 C.3     1  UNL1        0.0977
      8 C         142.6823  141.5566  159.5605 C.3     1  UNL1        0.0271
      9 C         142.1405  141.0315  157.9667 C.2     1  UNL1        0.2274
     10 O         141.9419  139.5782  158.2806 O.2     1  UNL1       -0.2748
     11 N         141.0301  141.8222  157.3405 N.am    1  UNL1       -0.2749
     12 C         139.7212  141.1596  157.0283 C.3     1  UNL1        0.1000
     13 C         138.6109  141.9502  156.4022 C.3     1  UNL1        0.0670
     14 C         138.8096  143.4035  156.0883 C.ar    1  UNL1        0.0583
     15 N         137.6992  144.1942  155.4621 N.ar    1  UNL1       -0.2484
     16 C         137.8978  145.6474  155.1482 C.ar    1  UNL1        0.1023
     17 C         139.2069  146.3100  155.4605 C.ar    1  UNL1        0.0902
     18 C         140.3172  145.5194  156.0866 C.ar    1  UNL1        0.0040
     19 C         140.1185  144.0661  156.4005 C.ar    1  UNL1        0.0113
     20 C         141.2288  143.2755  157.0266 C.3     1  UNL1        0.1213
     21 C         139.4055  147.7633  155.1466 C.3     1  UNL1        0.4200
     22 F         139.6042  149.2166  154.8327 F       1  UNL1       -0.1658
     23 F         138.7808  148.1323  156.4595 F       1  UNL1       -0.1658
     24 F         140.0302  147.3944  153.8338 F       1  UNL1       -0.1658
     25 C         142.3728  142.3459  165.0117 C.3     1  UNL1        0.0251
     26 C         142.1904  143.5448  164.1289 C.3     1  UNL1        0.0217
     27 C         142.5718  143.4743  162.6799 C.3     1  UNL1        0.0724
     28 N         143.1356  142.2048  162.1138 N.3     1  UNL1       -0.2738
     29 C         143.3180  141.0059  162.9967 C.3     1  UNL1        0.0724
     30 C         142.9366  141.0765  164.4456 C.3     1  UNL1        0.0217
     31 C         141.2284  142.5578  169.3586 C.ar    1  UNL1        0.0140
     32 C         140.1968  142.8068  168.2985 C.ar    1  UNL1        0.0008
     33 C         140.5783  142.7362  166.8496 C.ar    1  UNL1       -0.0042
     34 C         141.9913  142.4166  166.4607 C.ar    1  UNL1       -0.0224
     35 C         143.0229  142.1676  167.5208 C.ar    1  UNL1       -0.0042
     36 C         142.6414  142.2382  168.9698 C.ar    1  UNL1        0.0008
     37 O         141.8536  142.2864  171.8657 O.co2   1  UNL1       -0.5446
     38 C         140.8469  142.6285  170.8076 C.2     1  UNL1        0.0729
     39 O         139.4588  143.0412  171.1985 O.co2   1  UNL1       -0.5446
@<TRIPOS>UNITY_ATOM_ATTR
37 1
charge -1
@<TRIPOS>BOND
     1    37    38   ar
     2    38    39   ar
     3    38    31    1
     4    31    32   ar
     5    32    33   ar
     6    33    34   ar
     7    34    25    1
     8    25    26    1
     9    26    27    1
    10    27    28    1
    11     1    28    1
    12     1     2    1
    13     3     2    1
    14     3     4    1
    15     4     5    1
    16     5     6    1
    17     6     7    1
    18     7     9    1
    19     9    10    2
    20     9    11   am
    21    11    12    1
    22    12    13    1
    23    13    14    1
    24    14    15   ar
    25    15    16   ar
    26    16    17   ar
    27    17    21    1
    28    21    22    1
    29    21    23    1
    30    21    24    1
    31    17    18   ar
    32    18    19   ar
    33    19    20    1
    34     7     8    1
    35    28    29    1
    36    29    30    1
    37    34    35   ar
    38    35    36   ar
    39    36    31   ar
    40    30    25    1
    41     8     1    1
    42     7     3    1
    43    20    11    1
    44    19    14   ar
