@<TRIPOS>MOLECULE
*****
 43 46 0 0 0
SMALL
GASTEIGER

@<TRIPOS>ATOM
      1 C         141.0304  144.9043  160.8990 C.2     1  UNL1        0.2460
      2 O         140.2482  145.6656  161.9279 O.2     1  UNL1       -0.2701
      3 N         142.4057  144.4010  161.2235 N.am    1  UNL1       -0.3009
      4 H         142.9191  143.9014  160.5482 H       1  UNL1        0.1497
      5 C         139.8324  145.4755  157.1589 C.ar    1  UNL1        0.1318
      6 C         140.4255  145.7335  158.5123 C.ar    1  UNL1        0.0388
      7 C         140.4374  144.6463  159.5456 C.ar    1  UNL1        0.0576
      8 C         139.8561  143.3010  159.2255 C.ar    1  UNL1        0.0222
      9 C         139.8680  142.2137  160.2588 C.ar    1  UNL1        0.0016
     10 C         139.2868  140.8685  159.9387 C.ar    1  UNL1        0.0001
     11 C         138.6937  140.6105  158.5853 C.ar    1  UNL1        0.0015
     12 C         138.6819  141.6977  157.5520 C.ar    1  UNL1        0.0191
     13 C         139.2631  143.0430  157.8721 C.ar    1  UNL1        0.0828
     14 N         139.2512  144.1303  156.8388 N.ar    1  UNL1       -0.2307
     15 C         139.7968  148.7374  154.0591 C.3     1  UNL1        0.0048
     16 C         138.9570  148.8681  155.2950 C.3     1  UNL1        0.0216
     17 C         138.9689  147.7808  156.3282 C.3     1  UNL1        0.0922
     18 N         139.8206  146.5628  156.1255 N.pl3   1  UNL1       -0.2932
     19 C         140.6604  146.4321  154.8896 C.3     1  UNL1        0.0922
     20 C         140.6485  147.5194  153.8564 C.3     1  UNL1        0.0216
     21 C         139.7850  149.8247  153.0257 C.3     1  UNL1        0.0174
     22 C         140.9854  150.0433  152.1533 C.3     1  UNL1        0.0722
     23 C         141.8766  151.9769  153.6423 C.3     1  UNL1        0.0897
     24 N         142.1256  150.8857  152.6437 N.3     1  UNL1       -0.2703
     25 C         143.5147  150.6367  152.1355 C.3     1  UNL1        0.0897
     26 C         142.9988  144.6590  162.5769 C.3     1  UNL1        0.0896
     27 C         142.9147  143.6093  163.6451 C.3     1  UNL1        0.0196
     28 C         143.7112  143.7582  164.9074 C.3     1  UNL1        0.0017
     29 C         143.6271  142.7085  165.9755 C.3     1  UNL1        0.0018
     30 C         142.7464  141.5098  165.7813 C.3     1  UNL1        0.0197
     31 C         141.9499  141.3609  164.5191 C.3     1  UNL1        0.0018
     32 C         142.0341  142.4106  163.4510 C.3     1  UNL1        0.0017
     33 C         142.6623  140.4600  166.8495 C.3     1  UNL1        0.0926
     34 N         141.4525  139.5780  166.9407 N.am    1  UNL1       -0.2707
     35 C         140.1720  140.1175  167.5055 C.2     1  UNL1        0.4016
     36 O         140.1012  141.5390  167.9792 O.2     1  UNL1       -0.2264
     37 H         141.4990  138.6450  166.6298 H       1  UNL1        0.1527
     38 O         138.9621  139.2354  167.5967 O.3     1  UNL1       -0.4347
     39 C         138.0291  139.1189  166.4280 C.3     1  UNL1        0.2099
     40 C         138.5711  139.1498  165.0296 C.3     1  UNL1        0.0406
     41 C         138.9137  137.6929  165.1302 C.3     1  UNL1        0.0037
     42 C         138.2285  140.6066  164.9291 C.3     1  UNL1        0.0037
     43 C         139.1131  139.1807  163.6313 C.3     1  UNL1        0.0037
@<TRIPOS>BOND
     1    23    24    1
     2    24    25    1
     3    24    22    1
     4    22    21    1
     5    21    15    1
     6    15    16    1
     7    16    17    1
     8    17    18    1
     9    18     5    1
    10     5     6   ar
    11     6     7   ar
    12     7     1    1
    13     1     2    2
    14     1     3   am
    15     3    26    1
    16    27    26    1
    17    27    28    1
    18    28    29    1
    19    29    30    1
    20    30    33    1
    21    33    34    1
    22    34    35   am
    23    35    36    2
    24    35    38    1
    25    38    39    1
    26    39    40    1
    27    40    41    1
    28    40    42    1
    29    40    43    1
    30    30    31    1
    31    31    32    1
    32     7     8   ar
    33     8     9   ar
    34     9    10   ar
    35    10    11   ar
    36    11    12   ar
    37    12    13   ar
    38    13    14   ar
    39    18    19    1
    40    19    20    1
    41    20    15    1
    42    14     5   ar
    43    32    27    1
    44    13     8   ar
    45     3     4    1
    46    34    37    1
@<TRIPOS>MOLECULE
*****
 43 46 0 0 0
SMALL
GASTEIGER

@<TRIPOS>ATOM
      1 C         140.5133  145.2921  159.6868 C.2     1  UNL1        0.2460
      2 O         141.8987  144.8255  160.0234 O.2     1  UNL1       -0.2701
      3 N         139.5993  145.7739  160.7742 N.am    1  UNL1       -0.3009
      4 H         138.6901  146.0801  160.5533 H       1  UNL1        0.1497
      5 C         139.5779  146.5267  156.0330 C.ar    1  UNL1        0.1318
      6 C         140.0491  146.5419  157.4569 C.ar    1  UNL1        0.0388
      7 C         140.0421  145.2769  158.2628 C.ar    1  UNL1        0.0576
      8 C         139.5638  143.9965  157.6448 C.ar    1  UNL1        0.0222
      9 C         139.5568  142.7314  158.4507 C.ar    1  UNL1        0.0016
     10 C         139.0785  141.4511  157.8327 C.ar    1  UNL1        0.0001
     11 C         138.6072  141.4359  156.4087 C.ar    1  UNL1        0.0015
     12 C         138.6143  142.7009  155.6028 C.ar    1  UNL1        0.0191
     13 C         139.0925  143.9812  156.2208 C.ar    1  UNL1        0.0828
     14 N         139.0996  145.2464  155.4149 N.ar    1  UNL1       -0.2307
     15 C         139.5991  150.3219  153.6152 C.3     1  UNL1        0.0048
     16 C         140.3300  149.1108  153.1163 C.3     1  UNL1        0.0216
     17 C         140.3229  147.8458  153.9222 C.3     1  UNL1        0.0922
     18 N         139.5849  147.7918  155.2270 N.pl3   1  UNL1       -0.2932
     19 C         138.8540  149.0029  155.7259 C.3     1  UNL1        0.0922
     20 C         138.8611  150.2680  154.9200 C.3     1  UNL1        0.0216
     21 C         139.6061  151.5871  152.8093 C.3     1  UNL1        0.0174
     22 C         138.4816  152.5702  152.9469 C.3     1  UNL1        0.0722
     23 C         139.4180  154.9891  152.7981 C.3     1  UNL1        0.0897
     24 N         138.7285  153.9087  153.5774 N.3     1  UNL1       -0.2703
     25 C         138.2860  154.1667  154.9872 C.3     1  UNL1        0.0897
     26 C         140.0706  145.7891  162.1981 C.3     1  UNL1        0.0896
     27 C         139.8698  144.5833  163.0676 C.3     1  UNL1        0.0196
     28 C         140.6338  144.4487  164.3513 C.3     1  UNL1        0.0017
     29 C         140.4330  143.2430  165.2206 C.3     1  UNL1        0.0018
     30 C         139.4681  142.1719  164.8062 C.3     1  UNL1        0.0197
     31 C         138.7040  142.3065  163.5225 C.3     1  UNL1        0.0018
     32 C         138.9049  143.5123  162.6531 C.3     1  UNL1        0.0017
     33 C         139.2672  140.9661  165.6756 C.3     1  UNL1        0.0926
     34 N         139.9180  140.8978  167.0254 N.am    1  UNL1       -0.2707
     35 C         139.3968  139.9473  168.0620 C.2     1  UNL1        0.4016
     36 O         138.2248  139.0650  167.7490 O.2     1  UNL1       -0.2264
     37 H         140.6872  141.4769  167.2308 H       1  UNL1        0.1527
     38 O         140.0476  139.8790  169.4118 O.3     1  UNL1       -0.4347
     39 C         140.0513  141.0844  170.3045 C.3     1  UNL1        0.2099
     40 C         141.2300  142.0122  170.3072 C.3     1  UNL1        0.0406
     41 C         142.1190  140.8816  170.7329 C.3     1  UNL1        0.0037
     42 C         140.3410  143.1428  169.8815 C.3     1  UNL1        0.0037
     43 C         142.4086  142.9400  170.3099 C.3     1  UNL1        0.0037
@<TRIPOS>BOND
     1    23    24    1
     2    24    25    1
     3    24    22    1
     4    22    21    1
     5    21    15    1
     6    15    16    1
     7    16    17    1
     8    17    18    1
     9    18     5    1
    10     5     6   ar
    11     6     7   ar
    12     7     1    1
    13     1     2    2
    14     1     3   am
    15     3    26    1
    16    27    26    1
    17    27    28    1
    18    28    29    1
    19    29    30    1
    20    30    33    1
    21    33    34    1
    22    34    35   am
    23    35    36    2
    24    35    38    1
    25    38    39    1
    26    39    40    1
    27    40    41    1
    28    40    42    1
    29    40    43    1
    30    30    31    1
    31    31    32    1
    32     7     8   ar
    33     8     9   ar
    34     9    10   ar
    35    10    11   ar
    36    11    12   ar
    37    12    13   ar
    38    13    14   ar
    39    18    19    1
    40    19    20    1
    41    20    15    1
    42    14     5   ar
    43    32    27    1
    44    13     8   ar
    45     3     4    1
    46    34    37    1
@<TRIPOS>MOLECULE
*****
 43 46 0 0 0
SMALL
GASTEIGER

@<TRIPOS>ATOM
      1 C         138.8938  142.8817  163.5257 C.2     1  UNL1        0.2460
      2 O         137.5850  143.4651  163.9693 O.2     1  UNL1       -0.2701
      3 N         140.0394  142.7902  164.4896 N.am    1  UNL1       -0.3009
      4 H         140.8984  142.4073  164.1985 H       1  UNL1        0.1497
      5 C         139.4346  142.8769  159.5941 C.ar    1  UNL1        0.1318
      6 C         139.2714  143.3686  161.0017 C.ar    1  UNL1        0.0388
      7 C         139.0570  142.3899  162.1180 C.ar    1  UNL1        0.0576
      8 C         139.0058  140.9193  161.8266 C.ar    1  UNL1        0.0222
      9 C         138.7914  139.9406  162.9429 C.ar    1  UNL1        0.0016
     10 C         138.7402  138.4701  162.6515 C.ar    1  UNL1        0.0001
     11 C         138.9034  137.9783  161.2439 C.ar    1  UNL1        0.0015
     12 C         139.1178  138.9571  160.1276 C.ar    1  UNL1        0.0191
     13 C         139.1690  140.4276  160.4190 C.ar    1  UNL1        0.0828
     14 N         139.3834  141.4064  159.3027 N.ar    1  UNL1       -0.2307
     15 C         140.0778  145.8131  156.2452 C.3     1  UNL1        0.0048
     16 C         139.4683  144.4725  155.9605 C.3     1  UNL1        0.0216
     17 C         139.2539  143.4937  157.0767 C.3     1  UNL1        0.0922
     18 N         139.6490  143.8557  158.4778 N.pl3   1  UNL1       -0.2932
     19 C         140.2585  145.1963  158.7625 C.3     1  UNL1        0.0922
     20 C         140.4729  146.1750  157.6463 C.3     1  UNL1        0.0216
     21 C         140.2922  146.7919  155.1289 C.3     1  UNL1        0.0174
     22 C         139.1663  147.6753  154.6795 C.3     1  UNL1        0.0722
     23 C         139.6076  150.2069  154.2971 C.3     1  UNL1        0.0897
     24 N         139.0890  149.0944  155.1593 N.3     1  UNL1       -0.2703
     25 C         138.4932  149.4009  156.5013 C.3     1  UNL1        0.0897
     26 C         139.8762  143.2820  165.8973 C.3     1  UNL1        0.0896
     27 C         140.3427  142.4372  167.0457 C.3     1  UNL1        0.0196
     28 C         140.4959  140.9551  166.8729 C.3     1  UNL1        0.0017
     29 C         140.9624  140.1104  168.0213 C.3     1  UNL1        0.0018
     30 C         141.2756  140.7478  169.3425 C.3     1  UNL1        0.0197
     31 C         141.1224  142.2298  169.5153 C.3     1  UNL1        0.0018
     32 C         140.6559  143.0745  168.3670 C.3     1  UNL1        0.0017
     33 C         141.7421  139.9030  170.4909 C.3     1  UNL1        0.0926
     34 N         142.1473  138.4777  170.2575 N.am    1  UNL1       -0.2707
     35 C         143.4660  137.9795  170.7700 C.2     1  UNL1        0.4016
     36 O         144.3795  138.9065  171.5158 O.2     1  UNL1       -0.2264
     37 H         141.5478  137.8694  169.7680 H       1  UNL1        0.1527
     38 O         143.8714  136.5542  170.5366 O.3     1  UNL1       -0.4347
     39 C         145.3069  136.1478  170.6911 C.3     1  UNL1        0.2099
     40 C         145.8574  135.8419  172.0526 C.3     1  UNL1        0.0406
     41 C         147.1005  136.6142  171.7236 C.3     1  UNL1        0.0037
     42 C         144.6144  135.0695  172.3816 C.3     1  UNL1        0.0037
     43 C         146.4079  135.5359  173.4139 C.3     1  UNL1        0.0037
@<TRIPOS>BOND
     1    23    24    1
     2    24    25    1
     3    24    22    1
     4    22    21    1
     5    21    15    1
     6    15    16    1
     7    16    17    1
     8    17    18    1
     9    18     5    1
    10     5     6   ar
    11     6     7   ar
    12     7     1    1
    13     1     2    2
    14     1     3   am
    15     3    26    1
    16    27    26    1
    17    27    28    1
    18    28    29    1
    19    29    30    1
    20    30    33    1
    21    33    34    1
    22    34    35   am
    23    35    36    2
    24    35    38    1
    25    38    39    1
    26    39    40    1
    27    40    41    1
    28    40    42    1
    29    40    43    1
    30    30    31    1
    31    31    32    1
    32     7     8   ar
    33     8     9   ar
    34     9    10   ar
    35    10    11   ar
    36    11    12   ar
    37    12    13   ar
    38    13    14   ar
    39    18    19    1
    40    19    20    1
    41    20    15    1
    42    14     5   ar
    43    32    27    1
    44    13     8   ar
    45     3     4    1
    46    34    37    1
@<TRIPOS>MOLECULE
*****
 43 46 0 0 0
SMALL
GASTEIGER

@<TRIPOS>ATOM
      1 C         140.0503  138.7849  157.9559 C.2     1  UNL1        0.2460
      2 O         138.8672  139.2209  157.1432 O.2     1  UNL1       -0.2701
      3 N         139.9655  138.7657  159.4534 N.am    1  UNL1       -0.3009
      4 H         140.7420  138.4796  159.9867 H       1  UNL1        0.1497
      5 C         142.7991  136.5146  156.2125 C.ar    1  UNL1        0.1318
      6 C         141.5313  136.9313  156.8974 C.ar    1  UNL1        0.0388
      7 C         141.3181  138.3682  157.2711 C.ar    1  UNL1        0.0576
      8 C         142.3728  139.3885  156.9600 C.ar    1  UNL1        0.0222
      9 C         142.1596  140.8255  157.3337 C.ar    1  UNL1        0.0016
     10 C         143.2142  141.8457  157.0225 C.ar    1  UNL1        0.0001
     11 C         144.4820  141.4290  156.3377 C.ar    1  UNL1        0.0015
     12 C         144.6952  139.9920  155.9640 C.ar    1  UNL1        0.0191
     13 C         143.6406  138.9718  156.2751 C.ar    1  UNL1        0.0828
     14 N         143.8537  137.5348  155.9014 N.ar    1  UNL1       -0.2307
     15 C         143.4384  132.2036  155.0913 C.3     1  UNL1        0.0048
     16 C         142.7056  133.1207  154.1575 C.3     1  UNL1        0.0216
     17 C         142.4925  134.5576  154.5312 C.3     1  UNL1        0.0922
     18 N         143.0122  135.0775  155.8388 N.pl3   1  UNL1       -0.2932
     19 C         143.7449  134.1605  156.7726 C.3     1  UNL1        0.0922
     20 C         143.9580  132.7235  156.3988 C.3     1  UNL1        0.0216
     21 C         143.6515  130.7666  154.7176 C.3     1  UNL1        0.0174
     22 C         144.9227  130.0713  155.1058 C.3     1  UNL1        0.0722
     23 C         144.1902  128.9620  157.3380 C.3     1  UNL1        0.0897
     24 N         144.8771  128.8735  156.0075 N.3     1  UNL1       -0.2703
     25 C         145.5185  127.5871  155.5787 C.3     1  UNL1        0.0897
     26 C         138.6977  139.1825  160.1382 C.3     1  UNL1        0.0896
     27 C         138.6251  139.1990  161.6364 C.3     1  UNL1        0.0196
     28 C         138.0780  140.4010  162.3476 C.3     1  UNL1        0.0017
     29 C         138.0054  140.4174  163.8457 C.3     1  UNL1        0.0018
     30 C         138.4799  139.2319  164.6327 C.3     1  UNL1        0.0197
     31 C         139.0269  138.0298  163.9215 C.3     1  UNL1        0.0018
     32 C         139.0996  138.0134  162.4234 C.3     1  UNL1        0.0017
     33 C         138.4072  139.2484  166.1309 C.3     1  UNL1        0.0926
     34 N         139.5458  139.8085  166.9308 N.am    1  UNL1       -0.2707
     35 C         139.4302  139.9222  168.4220 C.2     1  UNL1        0.4016
     36 O         138.1760  139.4757  169.1132 O.2     1  UNL1       -0.2264
     37 H         140.3689  140.1016  166.4771 H       1  UNL1        0.1527
     38 O         140.5687  140.4824  169.2220 O.3     1  UNL1       -0.4347
     39 C         141.9511  140.5115  168.6405 C.3     1  UNL1        0.2099
     40 C         142.9836  141.4406  169.2070 C.3     1  UNL1        0.0406
     41 C         143.0580  140.6014  170.4480 C.3     1  UNL1        0.0037
     42 C         142.9092  142.2798  167.9660 C.3     1  UNL1        0.0037
     43 C         144.0161  142.3697  169.7733 C.3     1  UNL1        0.0037
@<TRIPOS>BOND
     1    23    24    1
     2    24    25    1
     3    24    22    1
     4    22    21    1
     5    21    15    1
     6    15    16    1
     7    16    17    1
     8    17    18    1
     9    18     5    1
    10     5     6   ar
    11     6     7   ar
    12     7     1    1
    13     1     2    2
    14     1     3   am
    15     3    26    1
    16    27    26    1
    17    27    28    1
    18    28    29    1
    19    29    30    1
    20    30    33    1
    21    33    34    1
    22    34    35   am
    23    35    36    2
    24    35    38    1
    25    38    39    1
    26    39    40    1
    27    40    41    1
    28    40    42    1
    29    40    43    1
    30    30    31    1
    31    31    32    1
    32     7     8   ar
    33     8     9   ar
    34     9    10   ar
    35    10    11   ar
    36    11    12   ar
    37    12    13   ar
    38    13    14   ar
    39    18    19    1
    40    19    20    1
    41    20    15    1
    42    14     5   ar
    43    32    27    1
    44    13     8   ar
    45     3     4    1
    46    34    37    1
@<TRIPOS>MOLECULE
*****
 43 46 0 0 0
SMALL
GASTEIGER

@<TRIPOS>ATOM
      1 C         140.7860  144.7408  159.6250 C.2     1  UNL1        0.2460
      2 O         142.2043  144.7573  160.1131 O.2     1  UNL1       -0.2701
      3 N         139.6936  145.3196  160.4745 N.am    1  UNL1       -0.3009
      4 H         138.7628  145.3088  160.1541 H       1  UNL1        0.1497
      5 C         140.3227  142.0803  156.7169 C.ar    1  UNL1        0.1318
      6 C         140.6485  142.6757  158.0546 C.ar    1  UNL1        0.0388
      7 C         140.4601  144.1454  158.2874 C.ar    1  UNL1        0.0576
      8 C         139.9457  145.0199  157.1824 C.ar    1  UNL1        0.0222
      9 C         139.7573  146.4897  157.4152 C.ar    1  UNL1        0.0016
     10 C         139.2430  147.3641  156.3103 C.ar    1  UNL1        0.0001
     11 C         138.9171  146.7687  154.9726 C.ar    1  UNL1        0.0015
     12 C         139.1055  145.2989  154.7399 C.ar    1  UNL1        0.0191
     13 C         139.6199  144.4245  155.8448 C.ar    1  UNL1        0.0828
     14 N         139.8083  142.9547  155.6120 N.ar    1  UNL1       -0.2307
     15 C         140.8881  137.6709  156.0189 C.3     1  UNL1        0.0048
     16 C         141.8942  138.4377  156.8250 C.3     1  UNL1        0.0216
     17 C         141.7057  139.9074  157.0577 C.3     1  UNL1        0.0922
     18 N         140.5111  140.6104  156.4842 N.pl3   1  UNL1       -0.2932
     19 C         139.5051  139.8437  155.6781 C.3     1  UNL1        0.0922
     20 C         139.6936  138.3739  155.4454 C.3     1  UNL1        0.0216
     21 C         141.0766  136.2010  155.7861 C.3     1  UNL1        0.0174
     22 C         142.3498  135.5316  156.2114 C.3     1  UNL1        0.0722
     23 C         143.0293  133.1557  157.0135 C.3     1  UNL1        0.0897
     24 N         142.5637  134.0751  155.9236 N.3     1  UNL1       -0.2703
     25 C         142.3120  133.5380  154.5459 C.3     1  UNL1        0.0897
     26 C         140.0195  145.9150  161.8122 C.3     1  UNL1        0.0896
     27 C         140.0883  145.0377  163.0270 C.3     1  UNL1        0.0196
     28 C         138.8349  144.6939  163.7758 C.3     1  UNL1        0.0017
     29 C         138.9037  143.8166  164.9905 C.3     1  UNL1        0.0018
     30 C         140.2259  143.2830  165.4563 C.3     1  UNL1        0.0197
     31 C         141.4793  143.6268  164.7075 C.3     1  UNL1        0.0018
     32 C         141.4105  144.5041  163.4928 C.3     1  UNL1        0.0017
     33 C         140.2947  142.4057  166.6711 C.3     1  UNL1        0.0926
     34 N         140.6257  140.9498  166.5270 N.am    1  UNL1       -0.2707
     35 C         139.5960  139.9953  165.9991 C.2     1  UNL1        0.4016
     36 O         138.2354  140.4967  165.6152 O.2     1  UNL1       -0.2264
     37 H         141.5187  140.6207  166.7789 H       1  UNL1        0.1527
     38 O         139.9270  138.5393  165.8549 O.3     1  UNL1       -0.4347
     39 C         139.2867  137.7288  164.7673 C.3     1  UNL1        0.2099
     40 C         139.8455  137.7667  163.3757 C.3     1  UNL1        0.0406
     41 C         141.1595  137.2573  163.8894 C.3     1  UNL1        0.0037
     42 C         138.5315  138.2762  162.8620 C.3     1  UNL1        0.0037
     43 C         140.4042  137.8047  161.9842 C.3     1  UNL1        0.0037
@<TRIPOS>BOND
     1    23    24    1
     2    24    25    1
     3    24    22    1
     4    22    21    1
     5    21    15    1
     6    15    16    1
     7    16    17    1
     8    17    18    1
     9    18     5    1
    10     5     6   ar
    11     6     7   ar
    12     7     1    1
    13     1     2    2
    14     1     3   am
    15     3    26    1
    16    27    26    1
    17    27    28    1
    18    28    29    1
    19    29    30    1
    20    30    33    1
    21    33    34    1
    22    34    35   am
    23    35    36    2
    24    35    38    1
    25    38    39    1
    26    39    40    1
    27    40    41    1
    28    40    42    1
    29    40    43    1
    30    30    31    1
    31    31    32    1
    32     7     8   ar
    33     8     9   ar
    34     9    10   ar
    35    10    11   ar
    36    11    12   ar
    37    12    13   ar
    38    13    14   ar
    39    18    19    1
    40    19    20    1
    41    20    15    1
    42    14     5   ar
    43    32    27    1
    44    13     8   ar
    45     3     4    1
    46    34    37    1
@<TRIPOS>MOLECULE
*****
 43 46 0 0 0
SMALL
GASTEIGER

@<TRIPOS>ATOM
      1 C         140.4931  139.0276  159.2157 C.2     1  UNL1        0.2460
      2 O         140.6881  138.7108  160.6689 O.2     1  UNL1       -0.2701
      3 N         139.2036  139.6335  158.7467 N.am    1  UNL1       -0.3009
      4 H         139.0756  139.8415  157.7930 H       1  UNL1        0.1497
      5 C         142.7407  137.1171  156.5609 C.ar    1  UNL1        0.1318
      6 C         141.6462  137.4062  157.5450 C.ar    1  UNL1        0.0388
      7 C         141.5876  138.7385  158.2316 C.ar    1  UNL1        0.0576
      8 C         142.6236  139.7818  157.9341 C.ar    1  UNL1        0.0222
      9 C         142.5650  141.1141  158.6207 C.ar    1  UNL1        0.0016
     10 C         143.6009  142.1573  158.3232 C.ar    1  UNL1        0.0001
     11 C         144.6954  141.8681  157.3392 C.ar    1  UNL1        0.0015
     12 C         144.7540  140.5358  156.6526 C.ar    1  UNL1        0.0191
     13 C         143.7181  139.4926  156.9501 C.ar    1  UNL1        0.0828
     14 N         143.7766  138.1602  156.2635 N.ar    1  UNL1       -0.2307
     15 C         142.9164  133.1200  154.5013 C.3     1  UNL1        0.0048
     16 C         143.6374  133.3266  155.8002 C.3     1  UNL1        0.0216
     17 C         143.5789  134.6590  156.4868 C.3     1  UNL1        0.0922
     18 N         142.7992  135.7847  155.8743 N.pl3   1  UNL1       -0.2932
     19 C         142.0782  135.5780  154.5754 C.3     1  UNL1        0.0922
     20 C         142.1367  134.2456  153.8889 C.3     1  UNL1        0.0216
     21 C         142.9749  131.7876  153.8147 C.3     1  UNL1        0.0174
     22 C         143.1233  130.5330  154.6234 C.3     1  UNL1        0.0722
     23 C         140.5402  130.2641  154.6968 C.3     1  UNL1        0.0897
     24 N         141.9107  129.7312  154.9931 N.3     1  UNL1       -0.2703
     25 C         142.0686  128.3965  155.6591 C.3     1  UNL1        0.0897
     26 C         138.1091  139.9227  159.7308 C.3     1  UNL1        0.0896
     27 C         138.2262  141.0944  160.6600 C.3     1  UNL1        0.0196
     28 C         137.5824  141.0453  162.0139 C.3     1  UNL1        0.0017
     29 C         137.6996  142.2170  162.9430 C.3     1  UNL1        0.0018
     30 C         138.4605  143.4378  162.5183 C.3     1  UNL1        0.0197
     31 C         139.1043  143.4870  161.1644 C.3     1  UNL1        0.0018
     32 C         138.9872  142.3153  160.2353 C.3     1  UNL1        0.0017
     33 C         138.5777  144.6096  163.4475 C.3     1  UNL1        0.0926
     34 N         139.8859  145.3306  163.5841 N.am    1  UNL1       -0.2707
     35 C         141.0993  144.5966  164.0728 C.2     1  UNL1        0.4016
     36 O         141.0045  143.1416  164.4249 O.2     1  UNL1       -0.2264
     37 H         139.9481  146.2855  163.3530 H       1  UNL1        0.1527
     38 O         142.4076  145.3176  164.2094 O.3     1  UNL1       -0.4347
     39 C         143.5662  144.9413  163.3343 C.3     1  UNL1        0.2099
     40 C         144.3033  143.6575  163.5766 C.3     1  UNL1        0.0406
     41 C         144.2087  143.3276  162.1164 C.3     1  UNL1        0.0037
     42 C         144.3979  143.9874  165.0368 C.3     1  UNL1        0.0037
     43 C         145.0403  142.3738  163.8189 C.3     1  UNL1        0.0037
@<TRIPOS>BOND
     1    23    24    1
     2    24    25    1
     3    24    22    1
     4    22    21    1
     5    21    15    1
     6    15    16    1
     7    16    17    1
     8    17    18    1
     9    18     5    1
    10     5     6   ar
    11     6     7   ar
    12     7     1    1
    13     1     2    2
    14     1     3   am
    15     3    26    1
    16    27    26    1
    17    27    28    1
    18    28    29    1
    19    29    30    1
    20    30    33    1
    21    33    34    1
    22    34    35   am
    23    35    36    2
    24    35    38    1
    25    38    39    1
    26    39    40    1
    27    40    41    1
    28    40    42    1
    29    40    43    1
    30    30    31    1
    31    31    32    1
    32     7     8   ar
    33     8     9   ar
    34     9    10   ar
    35    10    11   ar
    36    11    12   ar
    37    12    13   ar
    38    13    14   ar
    39    18    19    1
    40    19    20    1
    41    20    15    1
    42    14     5   ar
    43    32    27    1
    44    13     8   ar
    45     3     4    1
    46    34    37    1
@<TRIPOS>MOLECULE
*****
 43 46 0 0 0
SMALL
GASTEIGER

@<TRIPOS>ATOM
      1 C         138.6256  140.7305  157.5691 C.2     1  UNL1        0.2460
      2 O         139.2886  141.8391  158.3318 O.2     1  UNL1       -0.2701
      3 N         139.0478  139.3088  157.7935 N.am    1  UNL1       -0.3009
      4 H         138.6127  138.5813  157.2930 H       1  UNL1        0.1497
      5 C         135.0401  140.9515  155.8824 C.ar    1  UNL1        0.1318
      6 C         136.1252  140.6382  156.8695 C.ar    1  UNL1        0.0388
      7 C         137.5404  141.0438  156.5820 C.ar    1  UNL1        0.0576
      8 C         137.8706  141.7626  155.3075 C.ar    1  UNL1        0.0222
      9 C         139.2858  142.1681  155.0201 C.ar    1  UNL1        0.0016
     10 C         139.6158  142.8869  153.7456 C.ar    1  UNL1        0.0001
     11 C         138.5307  143.2001  152.7585 C.ar    1  UNL1        0.0015
     12 C         137.1154  142.7946  153.0459 C.ar    1  UNL1        0.0191
     13 C         136.7854  142.0758  154.3204 C.ar    1  UNL1        0.0828
     14 N         135.3701  141.6702  154.6079 N.ar    1  UNL1       -0.2307
     15 C         130.7944  139.7348  156.7448 C.3     1  UNL1        0.0048
     16 C         131.0715  140.9371  155.8918 C.3     1  UNL1        0.0216
     17 C         132.4867  141.3427  155.6044 C.3     1  UNL1        0.0922
     18 N         133.6248  140.5459  156.1699 N.pl3   1  UNL1       -0.2932
     19 C         133.3477  139.3436  157.0229 C.3     1  UNL1        0.0922
     20 C         131.9325  138.9380  157.3103 C.3     1  UNL1        0.0216
     21 C         129.3791  139.3292  157.0323 C.3     1  UNL1        0.0174
     22 C         128.9011  139.2286  158.4505 C.3     1  UNL1        0.0722
     23 C         126.9586  140.8856  157.9702 C.3     1  UNL1        0.0897
     24 N         127.8275  140.1507  158.9474 N.3     1  UNL1       -0.2703
     25 C         127.6228  140.3380  160.4215 C.3     1  UNL1        0.0897
     26 C         140.1330  138.9956  158.7806 C.3     1  UNL1        0.0896
     27 C         139.7838  138.6882  160.2067 C.3     1  UNL1        0.0196
     28 C         138.3817  138.8968  160.6972 C.3     1  UNL1        0.0017
     29 C         138.0326  138.5894  162.1232 C.3     1  UNL1        0.0018
     30 C         139.0855  138.0735  163.0587 C.3     1  UNL1        0.0197
     31 C         140.4876  137.8650  162.5682 C.3     1  UNL1        0.0018
     32 C         140.8367  138.1723  161.1422 C.3     1  UNL1        0.0017
     33 C         138.7364  137.7661  164.4848 C.3     1  UNL1        0.0926
     34 N         139.0680  138.7504  165.5671 N.am    1  UNL1       -0.2707
     35 C         138.2778  138.7577  166.8420 C.2     1  UNL1        0.4016
     36 O         137.1560  137.7807  167.0347 O.2     1  UNL1       -0.2264
     37 H         139.8043  139.3915  165.4406 H       1  UNL1        0.1527
     38 O         138.6094  139.7419  167.9243 O.3     1  UNL1       -0.4347
     39 C         140.0059  140.2742  168.0518 C.3     1  UNL1        0.2099
     40 C         140.2438  141.6112  168.6891 C.3     1  UNL1        0.0406
     41 C         140.8819  142.1012  167.4232 C.3     1  UNL1        0.0037
     42 C         139.6056  141.1212  169.9551 C.3     1  UNL1        0.0037
     43 C         140.4815  142.9480  169.3265 C.3     1  UNL1        0.0037
@<TRIPOS>BOND
     1    23    24    1
     2    24    25    1
     3    24    22    1
     4    22    21    1
     5    21    15    1
     6    15    16    1
     7    16    17    1
     8    17    18    1
     9    18     5    1
    10     5     6   ar
    11     6     7   ar
    12     7     1    1
    13     1     2    2
    14     1     3   am
    15     3    26    1
    16    27    26    1
    17    27    28    1
    18    28    29    1
    19    29    30    1
    20    30    33    1
    21    33    34    1
    22    34    35   am
    23    35    36    2
    24    35    38    1
    25    38    39    1
    26    39    40    1
    27    40    41    1
    28    40    42    1
    29    40    43    1
    30    30    31    1
    31    31    32    1
    32     7     8   ar
    33     8     9   ar
    34     9    10   ar
    35    10    11   ar
    36    11    12   ar
    37    12    13   ar
    38    13    14   ar
    39    18    19    1
    40    19    20    1
    41    20    15    1
    42    14     5   ar
    43    32    27    1
    44    13     8   ar
    45     3     4    1
    46    34    37    1
@<TRIPOS>MOLECULE
*****
 43 46 0 0 0
SMALL
GASTEIGER

@<TRIPOS>ATOM
      1 C         142.9370  137.6696  158.8131 C.2     1  UNL1        0.2460
      2 O         143.5793  139.0020  158.5633 O.2     1  UNL1       -0.2701
      3 N         142.8457  137.1312  160.2101 N.am    1  UNL1       -0.3009
      4 H         142.4241  136.2568  160.3740 H       1  UNL1        0.1497
      5 C         142.4633  134.7728  156.1422 C.ar    1  UNL1        0.1318
      6 C         143.0142  135.5666  157.2895 C.ar    1  UNL1        0.0388
      7 C         142.3861  136.8758  157.6658 C.ar    1  UNL1        0.0576
      8 C         141.2071  137.3911  156.8948 C.ar    1  UNL1        0.0222
      9 C         140.5790  138.7002  157.2711 C.ar    1  UNL1        0.0016
     10 C         139.4001  139.2155  156.5001 C.ar    1  UNL1        0.0001
     11 C         138.8492  138.4216  155.3528 C.ar    1  UNL1        0.0015
     12 C         139.4772  137.1125  154.9765 C.ar    1  UNL1        0.0191
     13 C         140.6562  136.5972  155.7475 C.ar    1  UNL1        0.0828
     14 N         141.2843  135.2880  155.3712 N.ar    1  UNL1       -0.2307
     15 C         144.3476  130.8453  155.0134 C.3     1  UNL1        0.0048
     16 C         143.2578  131.4264  154.1622 C.3     1  UNL1        0.0216
     17 C         142.6297  132.7355  154.5385 C.3     1  UNL1        0.0922
     18 N         143.0914  133.4635  155.7660 N.pl3   1  UNL1       -0.2932
     19 C         144.1812  132.8825  156.6172 C.3     1  UNL1        0.0922
     20 C         144.8093  131.5733  156.2409 C.3     1  UNL1        0.0216
     21 C         144.9757  129.5361  154.6371 C.3     1  UNL1        0.0174
     22 C         144.6679  128.3010  155.4308 C.3     1  UNL1        0.0722
     23 C         142.1066  127.8678  155.3914 C.3     1  UNL1        0.0897
     24 N         143.3595  128.1811  156.1543 N.3     1  UNL1       -0.2703
     25 C         143.3039  128.3745  157.6407 C.3     1  UNL1        0.0897
     26 C         143.3966  137.9251  161.3574 C.3     1  UNL1        0.0896
     27 C         142.4891  138.3701  162.4658 C.3     1  UNL1        0.0196
     28 C         141.4511  137.4325  163.0074 C.3     1  UNL1        0.0017
     29 C         140.5437  137.8775  164.1158 C.3     1  UNL1        0.0018
     30 C         140.6742  139.2601  164.6825 C.3     1  UNL1        0.0197
     31 C         141.7122  140.1978  164.1409 C.3     1  UNL1        0.0018
     32 C         142.6196  139.7527  163.0326 C.3     1  UNL1        0.0017
     33 C         139.7667  139.7051  165.7909 C.3     1  UNL1        0.0926
     34 N         139.2039  141.0955  165.7869 N.am    1  UNL1       -0.2707
     35 C         138.2092  141.4989  164.7393 C.2     1  UNL1        0.4016
     36 O         137.7772  140.5120  163.6956 O.2     1  UNL1       -0.2264
     37 H         139.4875  141.7433  166.4719 H       1  UNL1        0.1527
     38 O         137.6464  142.8894  164.7353 O.3     1  UNL1       -0.4347
     39 C         138.5630  144.0699  164.8615 C.3     1  UNL1        0.2099
     40 C         139.4590  144.4493  163.7198 C.3     1  UNL1        0.0406
     41 C         138.2574  144.6620  162.8475 C.3     1  UNL1        0.0037
     42 C         140.6605  144.2366  164.5920 C.3     1  UNL1        0.0037
     43 C         140.3549  144.8287  162.5781 C.3     1  UNL1        0.0037
@<TRIPOS>BOND
     1    23    24    1
     2    24    25    1
     3    24    22    1
     4    22    21    1
     5    21    15    1
     6    15    16    1
     7    16    17    1
     8    17    18    1
     9    18     5    1
    10     5     6   ar
    11     6     7   ar
    12     7     1    1
    13     1     2    2
    14     1     3   am
    15     3    26    1
    16    27    26    1
    17    27    28    1
    18    28    29    1
    19    29    30    1
    20    30    33    1
    21    33    34    1
    22    34    35   am
    23    35    36    2
    24    35    38    1
    25    38    39    1
    26    39    40    1
    27    40    41    1
    28    40    42    1
    29    40    43    1
    30    30    31    1
    31    31    32    1
    32     7     8   ar
    33     8     9   ar
    34     9    10   ar
    35    10    11   ar
    36    11    12   ar
    37    12    13   ar
    38    13    14   ar
    39    18    19    1
    40    19    20    1
    41    20    15    1
    42    14     5   ar
    43    32    27    1
    44    13     8   ar
    45     3     4    1
    46    34    37    1
@<TRIPOS>MOLECULE
*****
 43 46 0 0 0
SMALL
GASTEIGER

@<TRIPOS>ATOM
      1 C         141.5007  142.3027  163.8232 C.2     1  UNL1        0.2460
      2 O         140.7695  143.3462  164.6147 O.2     1  UNL1       -0.2701
      3 N         142.7978  141.7474  164.3323 N.am    1  UNL1       -0.3009
      4 H         143.2777  141.0625  163.8129 H       1  UNL1        0.1497
      5 C         140.5487  142.1382  159.9740 C.ar    1  UNL1        0.1318
      6 C         141.1147  142.6265  161.2745 C.ar    1  UNL1        0.0388
      7 C         140.9348  141.8144  162.5227 C.ar    1  UNL1        0.0576
      8 C         140.1890  140.5139  162.4705 C.ar    1  UNL1        0.0222
      9 C         140.0092  139.7018  163.7187 C.ar    1  UNL1        0.0016
     10 C         139.2634  138.4014  163.6664 C.ar    1  UNL1        0.0001
     11 C         138.6975  137.9131  162.3659 C.ar    1  UNL1        0.0015
     12 C         138.8773  138.7252  161.1177 C.ar    1  UNL1        0.0191
     13 C         139.6231  140.0256  161.1700 C.ar    1  UNL1        0.0828
     14 N         139.8030  140.8378  159.9217 N.ar    1  UNL1       -0.2307
     15 C         141.0885  144.5747  156.2294 C.3     1  UNL1        0.0048
     16 C         142.2865  144.0280  156.9476 C.3     1  UNL1        0.0216
     17 C         142.1065  143.2159  158.1958 C.3     1  UNL1        0.0922
     18 N         140.7286  142.9504  158.7257 N.pl3   1  UNL1       -0.2932
     19 C         139.5306  143.4971  158.0075 C.3     1  UNL1        0.0922
     20 C         139.7105  144.3092  156.7593 C.3     1  UNL1        0.0216
     21 C         141.2683  145.3869  154.9811 C.3     1  UNL1        0.0174
     22 C         140.0903  146.0753  154.3580 C.3     1  UNL1        0.0722
     23 C         138.9217  147.8386  155.8663 C.3     1  UNL1        0.0897
     24 N         139.7951  147.5073  154.6927 N.3     1  UNL1       -0.2703
     25 C         140.3733  148.6081  153.8537 C.3     1  UNL1        0.0897
     26 C         143.3637  142.2357  165.6328 C.3     1  UNL1        0.0896
     27 C         142.8518  141.6807  166.9290 C.3     1  UNL1        0.0196
     28 C         143.3192  142.2618  168.2304 C.3     1  UNL1        0.0017
     29 C         142.8073  141.7068  169.5265 C.3     1  UNL1        0.0018
     30 C         141.8280  140.5706  169.5212 C.3     1  UNL1        0.0197
     31 C         141.3606  139.9894  168.2198 C.3     1  UNL1        0.0018
     32 C         141.8725  140.5445  166.9237 C.3     1  UNL1        0.0017
     33 C         141.3161  140.0156  170.8173 C.3     1  UNL1        0.0926
     34 N         139.9685  139.3592  170.8720 N.am    1  UNL1       -0.2707
     35 C         138.7270  140.1781  170.6776 C.2     1  UNL1        0.4016
     36 O         138.8330  141.6535  170.4286 O.2     1  UNL1       -0.2264
     37 H         139.8989  138.3908  171.0355 H       1  UNL1        0.1527
     38 O         137.3793  139.5217  170.7323 O.3     1  UNL1       -0.4347
     39 C         137.2342  138.1558  171.3350 C.3     1  UNL1        0.2099
     40 C         136.0705  137.8512  172.2311 C.3     1  UNL1        0.0406
     41 C         136.7681  136.6154  172.7171 C.3     1  UNL1        0.0037
     42 C         135.3728  139.0869  171.7452 C.3     1  UNL1        0.0037
     43 C         134.9068  137.5465  173.1272 C.3     1  UNL1        0.0037
@<TRIPOS>BOND
     1    23    24    1
     2    24    25    1
     3    24    22    1
     4    22    21    1
     5    21    15    1
     6    15    16    1
     7    16    17    1
     8    17    18    1
     9    18     5    1
    10     5     6   ar
    11     6     7   ar
    12     7     1    1
    13     1     2    2
    14     1     3   am
    15     3    26    1
    16    27    26    1
    17    27    28    1
    18    28    29    1
    19    29    30    1
    20    30    33    1
    21    33    34    1
    22    34    35   am
    23    35    36    2
    24    35    38    1
    25    38    39    1
    26    39    40    1
    27    40    41    1
    28    40    42    1
    29    40    43    1
    30    30    31    1
    31    31    32    1
    32     7     8   ar
    33     8     9   ar
    34     9    10   ar
    35    10    11   ar
    36    11    12   ar
    37    12    13   ar
    38    13    14   ar
    39    18    19    1
    40    19    20    1
    41    20    15    1
    42    14     5   ar
    43    32    27    1
    44    13     8   ar
    45     3     4    1
    46    34    37    1
