@<TRIPOS>MOLECULE
*****
 29 33 0 0 0
SMALL
GASTEIGER

@<TRIPOS>ATOM
      1 N         143.3573  142.5099  166.6503 N.3     1  UNL1       -0.3199
      2 C         142.0204  142.3728  165.9843 C.3     1  UNL1        0.0841
      3 C         141.8550  142.7653  164.5460 C.3     1  UNL1        0.0368
      4 C         140.5179  142.6281  163.8801 C.3     1  UNL1        0.0892
      5 C         139.3462  142.0983  164.6524 C.3     1  UNL1        0.1584
      6 O         139.5116  141.7057  166.0907 O.3     1  UNL1       -0.3490
      7 C         140.8486  141.8430  166.7567 C.3     1  UNL1        0.1538
      8 H         144.0329  142.8824  165.9830 H       1  UNL1        0.1189
      9 H         143.6702  141.5955  166.9763 H       1  UNL1        0.1189
     10 N         140.3525  143.0206  162.4419 N.3     1  UNL1       -0.2627
     11 C         139.2270  142.6095  161.5395 C.3     1  UNL1        0.1206
     12 C         139.4626  143.2281  160.1934 C.ar    1  UNL1        0.0971
     13 N         138.9125  143.3563  158.8038 N.ar    1  UNL1       -0.1498
     14 N         139.8437  144.2289  158.0154 N.ar    1  UNL1       -0.1303
     15 N         139.8121  144.7022  156.5924 N.ar    1  UNL1       -0.1434
     16 C         140.9060  145.5866  156.0718 C.ar    1  UNL1        0.1428
     17 C         142.0315  145.9977  156.9741 C.ar    1  UNL1        0.1231
     18 N         142.0631  145.5244  158.3971 N.ar    1  UNL1       -0.2221
     19 C         140.9692  144.6400  158.9177 C.ar    1  UNL1        0.1822
     20 C         140.7336  144.0214  160.2638 C.ar    1  UNL1        0.0480
     21 C         141.2837  143.8932  161.6535 C.3     1  UNL1        0.1039
     22 C         141.0139  141.4504  168.1949 C.ar    1  UNL1        0.0355
     23 C         141.5528  140.0951  168.5451 C.ar    1  UNL1        0.0300
     24 C         141.7182  139.7024  169.9834 C.ar    1  UNL1        0.1400
     25 F         142.2571  138.3471  170.3336 F       1  UNL1       -0.2042
     26 C         141.3446  140.6651  171.0713 C.ar    1  UNL1        0.0319
     27 C         140.8057  142.0205  170.7210 C.ar    1  UNL1        0.0317
     28 C         140.6404  142.4131  169.2828 C.ar    1  UNL1        0.1386
     29 F         140.1015  143.7684  168.9325 F       1  UNL1       -0.2044
@<TRIPOS>BOND
     1     2     1    1
     2     2     3    1
     3     3     4    1
     4     4    10    1
     5    10    11    1
     6    11    12    1
     7    12    13   ar
     8    13    14   ar
     9    14    15   ar
    10    15    16   ar
    11    16    17   ar
    12    17    18   ar
    13    18    19   ar
    14    19    20   ar
    15    20    21    1
    16     4     5    1
    17     5     6    1
    18     6     7    1
    19     7    22    1
    20    22    23   ar
    21    23    24   ar
    22    24    25    1
    23    24    26   ar
    24    26    27   ar
    25    27    28   ar
    26    28    29    1
    27     7     2    1
    28    28    22   ar
    29    21    10    1
    30    20    12   ar
    31    19    14   ar
    32     1     8    1
    33     1     9    1
@<TRIPOS>MOLECULE
*****
 29 33 0 0 0
SMALL
GASTEIGER

@<TRIPOS>ATOM
      1 N         142.6808  139.6689  166.9886 N.3     1  UNL1       -0.3199
      2 C         141.7338  140.0403  165.8863 C.3     1  UNL1        0.0841
      3 C         142.0037  139.5888  164.4816 C.3     1  UNL1        0.0368
      4 C         141.0566  139.9602  163.3793 C.3     1  UNL1        0.0892
      5 C         139.8396  140.7833  163.6817 C.3     1  UNL1        0.1584
      6 O         139.5696  141.2349  165.0865 O.3     1  UNL1       -0.3490
      7 C         140.5167  140.8634  166.1888 C.3     1  UNL1        0.1538
      8 H         143.4458  139.1129  166.6066 H       1  UNL1        0.1189
      9 H         142.1844  139.1249  167.6943 H       1  UNL1        0.1189
     10 N         141.3265  139.5087  161.9746 N.3     1  UNL1       -0.2627
     11 C         142.6774  139.3655  161.3387 C.3     1  UNL1        0.1206
     12 C         142.4786  138.8893  159.9302 C.ar    1  UNL1        0.0971
     13 N         143.1907  138.5065  158.6667 N.ar    1  UNL1       -0.1498
     14 N         142.1570  138.1188  157.6513 N.ar    1  UNL1       -0.1303
     15 N         142.2713  137.6539  156.2298 N.ar    1  UNL1       -0.1434
     16 C         141.0347  137.3322  155.4442 C.ar    1  UNL1        0.1428
     17 C         139.6837  137.4753  156.0801 C.ar    1  UNL1        0.1231
     18 N         139.5694  137.9402  157.5016 N.ar    1  UNL1       -0.2221
     19 C         140.8060  138.2620  158.2872 C.ar    1  UNL1        0.1822
     20 C         141.0048  138.7382  159.6957 C.ar    1  UNL1        0.0480
     21 C         140.2927  139.1210  160.9592 C.3     1  UNL1        0.1039
     22 C         140.2468  141.3150  167.5934 C.ar    1  UNL1        0.0355
     23 C         140.7760  142.6346  168.0718 C.ar    1  UNL1        0.0300
     24 C         140.5061  143.0862  169.4764 C.ar    1  UNL1        0.1400
     25 F         141.0353  144.4058  169.9548 F       1  UNL1       -0.2042
     26 C         139.7069  142.2184  170.4028 C.ar    1  UNL1        0.0319
     27 C         139.1777  140.8989  169.9245 C.ar    1  UNL1        0.0317
     28 C         139.4476  140.4472  168.5198 C.ar    1  UNL1        0.1386
     29 F         138.9183  139.1277  168.0415 F       1  UNL1       -0.2044
@<TRIPOS>BOND
     1     2     1    1
     2     2     3    1
     3     3     4    1
     4     4    10    1
     5    10    11    1
     6    11    12    1
     7    12    13   ar
     8    13    14   ar
     9    14    15   ar
    10    15    16   ar
    11    16    17   ar
    12    17    18   ar
    13    18    19   ar
    14    19    20   ar
    15    20    21    1
    16     4     5    1
    17     5     6    1
    18     6     7    1
    19     7    22    1
    20    22    23   ar
    21    23    24   ar
    22    24    25    1
    23    24    26   ar
    24    26    27   ar
    25    27    28   ar
    26    28    29    1
    27     7     2    1
    28    28    22   ar
    29    21    10    1
    30    20    12   ar
    31    19    14   ar
    32     1     8    1
    33     1     9    1
@<TRIPOS>MOLECULE
*****
 29 33 0 0 0
SMALL
GASTEIGER

@<TRIPOS>ATOM
      1 N         141.5164  141.9101  165.3009 N.3     1  UNL1       -0.3199
      2 C         141.1590  140.5606  164.7525 C.3     1  UNL1        0.0841
      3 C         141.1479  140.3323  163.2701 C.3     1  UNL1        0.0368
      4 C         140.7905  138.9826  162.7217 C.3     1  UNL1        0.0892
      5 C         140.4442  137.8613  163.6558 C.3     1  UNL1        0.1584
      6 O         140.4553  138.0895  165.1384 O.3     1  UNL1       -0.3490
      7 C         140.8127  139.4392  165.6867 C.3     1  UNL1        0.1538
      8 H         141.7215  142.5467  164.5308 H       1  UNL1        0.1189
      9 H         142.3371  141.8269  165.9009 H       1  UNL1        0.1189
     10 N         140.7793  138.7543  161.2392 N.3     1  UNL1       -0.2627
     11 C         139.5609  138.6828  160.3673 C.3     1  UNL1        0.1206
     12 C         140.0132  138.4417  158.9576 C.ar    1  UNL1        0.0971
     13 N         139.5398  138.2485  157.5474 N.ar    1  UNL1       -0.1498
     14 N         140.7451  138.0517  156.6766 N.ar    1  UNL1       -0.1303
     15 N         140.8906  137.8166  155.2023 N.ar    1  UNL1       -0.1434
     16 C         142.2546  137.6531  154.6000 C.ar    1  UNL1        0.1428
     17 C         143.4730  137.7247  155.4719 C.ar    1  UNL1        0.1231
     18 N         143.3275  137.9598  156.9462 N.ar    1  UNL1       -0.2221
     19 C         141.9636  138.1233  157.5485 C.ar    1  UNL1        0.1822
     20 C         141.5112  138.3643  158.9582 C.ar    1  UNL1        0.0480
     21 C         141.9847  138.5576  160.3684 C.3     1  UNL1        0.1039
     22 C         140.8239  139.6674  167.1692 C.ar    1  UNL1        0.0355
     23 C         139.5620  140.0646  167.8763 C.ar    1  UNL1        0.0300
     24 C         139.5731  140.2928  169.3588 C.ar    1  UNL1        0.1400
     25 F         138.3113  140.6901  170.0659 F       1  UNL1       -0.2042
     26 C         140.8460  140.1238  170.1341 C.ar    1  UNL1        0.0319
     27 C         142.1078  139.7266  169.4270 C.ar    1  UNL1        0.0317
     28 C         142.0967  139.4983  167.9445 C.ar    1  UNL1        0.1386
     29 F         143.3586  139.1011  167.2374 F       1  UNL1       -0.2044
@<TRIPOS>BOND
     1     2     1    1
     2     2     3    1
     3     3     4    1
     4     4    10    1
     5    10    11    1
     6    11    12    1
     7    12    13   ar
     8    13    14   ar
     9    14    15   ar
    10    15    16   ar
    11    16    17   ar
    12    17    18   ar
    13    18    19   ar
    14    19    20   ar
    15    20    21    1
    16     4     5    1
    17     5     6    1
    18     6     7    1
    19     7    22    1
    20    22    23   ar
    21    23    24   ar
    22    24    25    1
    23    24    26   ar
    24    26    27   ar
    25    27    28   ar
    26    28    29    1
    27     7     2    1
    28    28    22   ar
    29    21    10    1
    30    20    12   ar
    31    19    14   ar
    32     1     8    1
    33     1     9    1
@<TRIPOS>MOLECULE
*****
 29 33 0 0 0
SMALL
GASTEIGER

@<TRIPOS>ATOM
      1 N         139.4908  140.5076  166.0448 N.3     1  UNL1       -0.3199
      2 C         140.6492  141.3586  165.6162 C.3     1  UNL1        0.0841
      3 C         140.7535  141.8221  164.1935 C.3     1  UNL1        0.0368
      4 C         141.9120  142.6731  163.7649 C.3     1  UNL1        0.0892
      5 C         142.9662  143.0606  164.7591 C.3     1  UNL1        0.1584
      6 O         142.8620  142.5971  166.1820 O.3     1  UNL1       -0.3490
      7 C         141.7034  141.7461  166.6105 C.3     1  UNL1        0.1538
      8 H         138.8766  140.3428  165.2474 H       1  UNL1        0.1189
      9 H         138.9714  140.9861  166.7809 H       1  UNL1        0.1189
     10 N         142.0164  143.1366  162.3422 N.3     1  UNL1       -0.2627
     11 C         143.1111  142.7858  161.3786 C.3     1  UNL1        0.1206
     12 C         142.8155  143.4647  160.0741 C.ar    1  UNL1        0.0971
     13 N         143.3094  143.6675  158.6723 N.ar    1  UNL1       -0.1498
     14 N         142.3373  144.5633  157.9633 N.ar    1  UNL1       -0.1303
     15 N         142.3075  145.1048  156.5648 N.ar    1  UNL1       -0.1434
     16 C         141.1830  145.9971  156.1299 C.ar    1  UNL1        0.1428
     17 C         140.0883  146.3480  157.0935 C.ar    1  UNL1        0.1231
     18 N         140.1181  145.8065  158.4920 N.ar    1  UNL1       -0.2221
     19 C         141.2426  144.9141  158.9269 C.ar    1  UNL1        0.1822
     20 C         141.5382  144.2352  160.2314 C.ar    1  UNL1        0.0480
     21 C         141.0442  144.0324  161.6332 C.3     1  UNL1        0.1039
     22 C         141.5992  141.2827  168.0333 C.ar    1  UNL1        0.0355
     23 C         142.1899  139.9645  168.4378 C.ar    1  UNL1        0.0300
     24 C         142.0856  139.5010  169.8606 C.ar    1  UNL1        0.1400
     25 F         142.6763  138.1828  170.2651 F       1  UNL1       -0.2042
     26 C         141.3908  140.3556  170.8788 C.ar    1  UNL1        0.0319
     27 C         140.8001  141.6737  170.4742 C.ar    1  UNL1        0.0317
     28 C         140.9043  142.1373  169.0515 C.ar    1  UNL1        0.1386
     29 F         140.3136  143.4554  168.6469 F       1  UNL1       -0.2044
@<TRIPOS>BOND
     1     2     1    1
     2     2     3    1
     3     3     4    1
     4     4    10    1
     5    10    11    1
     6    11    12    1
     7    12    13   ar
     8    13    14   ar
     9    14    15   ar
    10    15    16   ar
    11    16    17   ar
    12    17    18   ar
    13    18    19   ar
    14    19    20   ar
    15    20    21    1
    16     4     5    1
    17     5     6    1
    18     6     7    1
    19     7    22    1
    20    22    23   ar
    21    23    24   ar
    22    24    25    1
    23    24    26   ar
    24    26    27   ar
    25    27    28   ar
    26    28    29    1
    27     7     2    1
    28    28    22   ar
    29    21    10    1
    30    20    12   ar
    31    19    14   ar
    32     1     8    1
    33     1     9    1
@<TRIPOS>MOLECULE
*****
 29 33 0 0 0
SMALL
GASTEIGER

@<TRIPOS>ATOM
      1 N         140.0379  140.3213  165.5265 N.3     1  UNL1       -0.3199
      2 C         141.2774  140.0124  164.7404 C.3     1  UNL1        0.0841
      3 C         141.1759  139.6718  163.2831 C.3     1  UNL1        0.0368
      4 C         142.4154  139.3628  162.4969 C.3     1  UNL1        0.0892
      5 C         143.7565  139.3944  163.1680 C.3     1  UNL1        0.1584
      6 O         143.8581  139.7350  164.6254 O.3     1  UNL1       -0.3490
      7 C         142.6185  140.0440  165.4116 C.3     1  UNL1        0.1538
      8 H         139.2230  140.2536  164.9170 H       1  UNL1        0.1189
      9 H         140.1020  141.2664  165.9048 H       1  UNL1        0.1189
     10 N         142.3139  139.0223  161.0396 N.3     1  UNL1       -0.2627
     11 C         143.4451  139.0167  160.0546 C.3     1  UNL1        0.1206
     12 C         142.8936  138.6185  158.7177 C.ar    1  UNL1        0.0971
     13 N         143.2519  138.3689  157.2826 N.ar    1  UNL1       -0.1498
     14 N         142.0013  137.9741  156.5545 N.ar    1  UNL1       -0.1303
     15 N         141.7464  137.6103  155.1218 N.ar    1  UNL1       -0.1434
     16 C         140.3604  137.2521  154.6742 C.ar    1  UNL1        0.1428
     17 C         139.2292  137.2576  155.6592 C.ar    1  UNL1        0.1231
     18 N         139.4840  137.6214  157.0919 N.ar    1  UNL1       -0.2221
     19 C         140.8701  137.9797  157.5396 C.ar    1  UNL1        0.1822
     20 C         141.4216  138.3779  158.8764 C.ar    1  UNL1        0.0480
     21 C         141.0632  138.6275  160.3116 C.3     1  UNL1        0.1039
     22 C         142.7201  140.3845  166.8688 C.ar    1  UNL1        0.0355
     23 C         142.5486  139.3119  167.9033 C.ar    1  UNL1        0.0300
     24 C         142.6502  139.6524  169.3606 C.ar    1  UNL1        0.1400
     25 F         142.4787  138.5799  170.3952 F       1  UNL1       -0.2042
     26 C         142.9233  141.0654  169.7834 C.ar    1  UNL1        0.0319
     27 C         143.0949  142.1380  168.7489 C.ar    1  UNL1        0.0317
     28 C         142.9933  141.7975  167.2916 C.ar    1  UNL1        0.1386
     29 F         143.1648  142.8701  166.2570 F       1  UNL1       -0.2044
@<TRIPOS>BOND
     1     2     1    1
     2     2     3    1
     3     3     4    1
     4     4    10    1
     5    10    11    1
     6    11    12    1
     7    12    13   ar
     8    13    14   ar
     9    14    15   ar
    10    15    16   ar
    11    16    17   ar
    12    17    18   ar
    13    18    19   ar
    14    19    20   ar
    15    20    21    1
    16     4     5    1
    17     5     6    1
    18     6     7    1
    19     7    22    1
    20    22    23   ar
    21    23    24   ar
    22    24    25    1
    23    24    26   ar
    24    26    27   ar
    25    27    28   ar
    26    28    29    1
    27     7     2    1
    28    28    22   ar
    29    21    10    1
    30    20    12   ar
    31    19    14   ar
    32     1     8    1
    33     1     9    1
@<TRIPOS>MOLECULE
*****
 29 33 0 0 0
SMALL
GASTEIGER

@<TRIPOS>ATOM
      1 N         145.0359  139.5236  164.7153 N.3     1  UNL1       -0.3199
      2 C         143.6760  139.5274  164.0827 C.3     1  UNL1        0.0841
      3 C         143.5133  139.1088  162.6515 C.3     1  UNL1        0.0368
      4 C         142.1532  139.1126  162.0189 C.3     1  UNL1        0.0892
      5 C         140.9558  139.5350  162.8175 C.3     1  UNL1        0.1584
      6 O         141.1184  139.9537  164.2487 O.3     1  UNL1       -0.3490
      7 C         142.4785  139.9498  164.8813 C.3     1  UNL1        0.1538
      8 H         145.7272  139.2114  164.0334 H       1  UNL1        0.1189
      9 H         145.0371  138.8904  165.5150 H       1  UNL1        0.1189
     10 N         141.9905  138.6940  160.5877 N.3     1  UNL1       -0.2627
     11 C         140.8609  139.0795  159.6793 C.3     1  UNL1        0.1206
     12 C         141.1012  138.4401  158.3438 C.ar    1  UNL1        0.0971
     13 N         140.5516  138.2831  156.9570 N.ar    1  UNL1       -0.1498
     14 N         141.4900  137.4055  156.1830 N.ar    1  UNL1       -0.1303
     15 N         141.4618  136.9076  154.7683 N.ar    1  UNL1       -0.1434
     16 C         142.5633  136.0242  154.2621 C.ar    1  UNL1        0.1428
     17 C         143.6930  135.6387  155.1706 C.ar    1  UNL1        0.1231
     18 N         143.7211  136.1366  156.5852 N.ar    1  UNL1       -0.2221
     19 C         142.6196  137.0200  157.0914 C.ar    1  UNL1        0.1822
     20 C         142.3793  137.6594  158.4269 C.ar    1  UNL1        0.0480
     21 C         142.9290  137.8163  159.8137 C.3     1  UNL1        0.1039
     22 C         142.6411  140.3684  166.3125 C.ar    1  UNL1        0.0355
     23 C         142.5181  139.3529  167.4095 C.ar    1  UNL1        0.0300
     24 C         142.6806  139.7714  168.8407 C.ar    1  UNL1        0.1400
     25 F         142.5576  138.7558  169.9378 F       1  UNL1       -0.2042
     26 C         142.9662  141.2055  169.1749 C.ar    1  UNL1        0.0319
     27 C         143.0893  142.2211  168.0778 C.ar    1  UNL1        0.0317
     28 C         142.9267  141.8026  166.6466 C.ar    1  UNL1        0.1386
     29 F         143.0497  142.8181  165.5496 F       1  UNL1       -0.2044
@<TRIPOS>BOND
     1     2     1    1
     2     2     3    1
     3     3     4    1
     4     4    10    1
     5    10    11    1
     6    11    12    1
     7    12    13   ar
     8    13    14   ar
     9    14    15   ar
    10    15    16   ar
    11    16    17   ar
    12    17    18   ar
    13    18    19   ar
    14    19    20   ar
    15    20    21    1
    16     4     5    1
    17     5     6    1
    18     6     7    1
    19     7    22    1
    20    22    23   ar
    21    23    24   ar
    22    24    25    1
    23    24    26   ar
    24    26    27   ar
    25    27    28   ar
    26    28    29    1
    27     7     2    1
    28    28    22   ar
    29    21    10    1
    30    20    12   ar
    31    19    14   ar
    32     1     8    1
    33     1     9    1
@<TRIPOS>MOLECULE
*****
 29 33 0 0 0
SMALL
GASTEIGER

@<TRIPOS>ATOM
      1 N         142.0055  142.2095  165.7552 N.3     1  UNL1       -0.3199
      2 C         142.0046  140.8631  165.0941 C.3     1  UNL1        0.0841
      3 C         142.2973  140.7474  163.6275 C.3     1  UNL1        0.0368
      4 C         142.2963  139.4009  162.9664 C.3     1  UNL1        0.0892
      5 C         142.0026  138.1702  163.7719 C.3     1  UNL1        0.1584
      6 O         141.7099  138.2858  165.2386 O.3     1  UNL1       -0.3490
      7 C         141.7109  139.6323  165.8997 C.3     1  UNL1        0.1538
      8 H         142.2228  142.9275  165.0641 H       1  UNL1        0.1189
      9 H         142.7086  142.2249  166.4941 H       1  UNL1        0.1189
     10 N         142.5890  139.2853  161.4998 N.3     1  UNL1       -0.2627
     11 C         143.6113  140.0771  160.7396 C.3     1  UNL1        0.1206
     12 C         143.5649  139.6386  159.3059 C.ar    1  UNL1        0.0971
     13 N         144.1680  139.8569  157.9500 N.ar    1  UNL1       -0.1498
     14 N         143.4898  138.9291  156.9860 N.ar    1  UNL1       -0.1303
     15 N         143.6710  138.7029  155.5143 N.ar    1  UNL1       -0.1434
     16 C         142.8300  137.6850  154.8028 C.ar    1  UNL1        0.1428
     17 C         141.8077  136.8931  155.5630 C.ar    1  UNL1        0.1231
     18 N         141.6264  137.1193  157.0347 N.ar    1  UNL1       -0.2221
     19 C         142.4675  138.1373  157.7462 C.ar    1  UNL1        0.1822
     20 C         142.5139  138.5758  159.1800 C.ar    1  UNL1        0.0480
     21 C         141.9107  138.3574  160.5360 C.3     1  UNL1        0.1039
     22 C         141.4182  139.7479  167.3663 C.ar    1  UNL1        0.0355
     23 C         142.5142  139.5378  168.3686 C.ar    1  UNL1        0.0300
     24 C         142.2215  139.6534  169.8352 C.ar    1  UNL1        0.1400
     25 F         143.3175  139.4432  170.8376 F       1  UNL1       -0.2042
     26 C         140.8329  139.9791  170.2995 C.ar    1  UNL1        0.0319
     27 C         139.7369  140.1892  169.2971 C.ar    1  UNL1        0.0317
     28 C         140.0295  140.0736  167.8305 C.ar    1  UNL1        0.1386
     29 F         138.9335  140.2837  166.8282 F       1  UNL1       -0.2044
@<TRIPOS>BOND
     1     2     1    1
     2     2     3    1
     3     3     4    1
     4     4    10    1
     5    10    11    1
     6    11    12    1
     7    12    13   ar
     8    13    14   ar
     9    14    15   ar
    10    15    16   ar
    11    16    17   ar
    12    17    18   ar
    13    18    19   ar
    14    19    20   ar
    15    20    21    1
    16     4     5    1
    17     5     6    1
    18     6     7    1
    19     7    22    1
    20    22    23   ar
    21    23    24   ar
    22    24    25    1
    23    24    26   ar
    24    26    27   ar
    25    27    28   ar
    26    28    29    1
    27     7     2    1
    28    28    22   ar
    29    21    10    1
    30    20    12   ar
    31    19    14   ar
    32     1     8    1
    33     1     9    1
@<TRIPOS>MOLECULE
*****
 29 33 0 0 0
SMALL
GASTEIGER

@<TRIPOS>ATOM
      1 N         140.9848  141.2266  159.7845 N.3     1  UNL1       -0.3199
      2 C         140.7637  140.1504  160.8056 C.3     1  UNL1        0.0841
      3 C         140.5543  140.5144  162.2456 C.3     1  UNL1        0.0368
      4 C         140.3333  139.4380  163.2668 C.3     1  UNL1        0.0892
      5 C         140.3216  137.9978  162.8479 C.3     1  UNL1        0.1584
      6 O         140.5310  137.6338  161.4078 O.3     1  UNL1       -0.3490
      7 C         140.7521  138.7101  160.3866 C.3     1  UNL1        0.1538
      8 H         140.9617  142.1385  160.2411 H       1  UNL1        0.1189
      9 H         140.2502  141.1813  159.0783 H       1  UNL1        0.1189
     10 N         140.1238  139.8019  164.7068 N.3     1  UNL1       -0.2627
     11 C         139.4820  138.9367  165.7505 C.3     1  UNL1        0.1206
     12 C         139.4810  139.6951  167.0447 C.ar    1  UNL1        0.0971
     13 N         139.0838  139.6290  168.4896 N.ar    1  UNL1       -0.1498
     14 N         139.4794  140.9221  169.1388 N.ar    1  UNL1       -0.1303
     15 N         139.3382  141.4235  170.5454 N.ar    1  UNL1       -0.1434
     16 C         139.8387  142.7901  170.9083 C.ar    1  UNL1        0.1428
     17 C         140.4805  143.6553  169.8645 C.ar    1  UNL1        0.1231
     18 N         140.6218  143.1540  168.4579 N.ar    1  UNL1       -0.2221
     19 C         140.1212  141.7874  168.0950 C.ar    1  UNL1        0.1822
     20 C         140.1222  141.0290  166.8009 C.ar    1  UNL1        0.0480
     21 C         140.5195  141.0951  165.3559 C.3     1  UNL1        0.1039
     22 C         140.9615  138.3461  158.9467 C.ar    1  UNL1        0.0355
     23 C         139.7822  138.1964  158.0319 C.ar    1  UNL1        0.0300
     24 C         139.9915  137.8324  156.5918 C.ar    1  UNL1        0.1400
     25 F         138.8122  137.6826  155.6770 F       1  UNL1       -0.2042
     26 C         141.3801  137.6182  156.0666 C.ar    1  UNL1        0.0319
     27 C         142.5594  137.7679  156.9815 C.ar    1  UNL1        0.0317
     28 C         142.3501  138.1319  158.4215 C.ar    1  UNL1        0.1386
     29 F         143.5294  138.2817  159.3363 F       1  UNL1       -0.2044
@<TRIPOS>BOND
     1     2     1    1
     2     2     3    1
     3     3     4    1
     4     4    10    1
     5    10    11    1
     6    11    12    1
     7    12    13   ar
     8    13    14   ar
     9    14    15   ar
    10    15    16   ar
    11    16    17   ar
    12    17    18   ar
    13    18    19   ar
    14    19    20   ar
    15    20    21    1
    16     4     5    1
    17     5     6    1
    18     6     7    1
    19     7    22    1
    20    22    23   ar
    21    23    24   ar
    22    24    25    1
    23    24    26   ar
    24    26    27   ar
    25    27    28   ar
    26    28    29    1
    27     7     2    1
    28    28    22   ar
    29    21    10    1
    30    20    12   ar
    31    19    14   ar
    32     1     8    1
    33     1     9    1
@<TRIPOS>MOLECULE
*****
 29 33 0 0 0
SMALL
GASTEIGER

@<TRIPOS>ATOM
      1 N         142.4732  139.0970  167.0154 N.3     1  UNL1       -0.3199
      2 C         142.4180  140.2124  166.0141 C.3     1  UNL1        0.0841
      3 C         142.7751  139.9520  164.5807 C.3     1  UNL1        0.0368
      4 C         142.7199  141.0675  163.5794 C.3     1  UNL1        0.0892
      5 C         142.3076  142.4435  164.0115 C.3     1  UNL1        0.1584
      6 O         141.9505  142.7040  165.4450 O.3     1  UNL1       -0.3490
      7 C         142.0057  141.5884  166.4463 C.3     1  UNL1        0.1538
      8 H         142.7704  138.2384  166.5519 H       1  UNL1        0.1189
      9 H         141.5484  138.9604  167.4235 H       1  UNL1        0.1189
     10 N         143.0770  140.8071  162.1460 N.3     1  UNL1       -0.2627
     11 C         142.9534  139.4943  161.4311 C.3     1  UNL1        0.1206
     12 C         143.4204  139.6897  160.0191 C.ar    1  UNL1        0.0971
     13 N         143.6326  138.9991  158.7045 N.ar    1  UNL1       -0.1498
     14 N         144.1760  140.0058  157.7344 N.ar    1  UNL1       -0.1303
     15 N         144.5742  139.8967  156.2923 N.ar    1  UNL1       -0.1434
     16 C         145.0959  141.1005  155.5652 C.ar    1  UNL1        0.1428
     17 C         145.2195  142.4133  156.2802 C.ar    1  UNL1        0.1231
     18 N         144.8213  142.5224  157.7222 N.ar    1  UNL1       -0.2221
     19 C         144.2995  141.3187  158.4493 C.ar    1  UNL1        0.1822
     20 C         143.8325  141.1233  159.8613 C.ar    1  UNL1        0.0480
     21 C         143.6203  141.8140  161.1759 C.3     1  UNL1        0.1039
     22 C         141.6486  141.8489  167.8796 C.ar    1  UNL1        0.0355
     23 C         140.2745  141.5184  168.3822 C.ar    1  UNL1        0.0300
     24 C         139.9173  141.7788  169.8156 C.ar    1  UNL1        0.1400
     25 F         138.5432  141.4483  170.3181 F       1  UNL1       -0.2042
     26 C         140.9343  142.3698  170.7464 C.ar    1  UNL1        0.0319
     27 C         142.3084  142.7004  170.2438 C.ar    1  UNL1        0.0317
     28 C         142.6656  142.4399  168.8105 C.ar    1  UNL1        0.1386
     29 F         144.0397  142.7705  168.3079 F       1  UNL1       -0.2044
@<TRIPOS>BOND
     1     2     1    1
     2     2     3    1
     3     3     4    1
     4     4    10    1
     5    10    11    1
     6    11    12    1
     7    12    13   ar
     8    13    14   ar
     9    14    15   ar
    10    15    16   ar
    11    16    17   ar
    12    17    18   ar
    13    18    19   ar
    14    19    20   ar
    15    20    21    1
    16     4     5    1
    17     5     6    1
    18     6     7    1
    19     7    22    1
    20    22    23   ar
    21    23    24   ar
    22    24    25    1
    23    24    26   ar
    24    26    27   ar
    25    27    28   ar
    26    28    29    1
    27     7     2    1
    28    28    22   ar
    29    21    10    1
    30    20    12   ar
    31    19    14   ar
    32     1     8    1
    33     1     9    1
