@<TRIPOS>MOLECULE
*****
 44 48 0 0 0
SMALL
GASTEIGER

@<TRIPOS>ATOM
      1 C         143.2177  142.8318  165.8376 C.ar    1  UNL1        0.2006
      2 N         142.0810  141.9241  165.4718 N.ar    1  UNL1       -0.2000
      3 C         141.4794  141.0207  166.5072 C.ar    1  UNL1        0.1379
      4 C         142.0146  141.0252  167.9085 C.ar    1  UNL1        0.0673
      5 C         141.6268  140.2511  169.1334 C.ar    1  UNL1        0.0265
      6 C         142.5239  140.6805  170.2563 C.ar    1  UNL1        0.1007
      7 N         143.4661  141.7199  169.7253 N.ar    1  UNL1       -0.2268
      8 C         143.1513  141.9329  168.2743 C.ar    1  UNL1        0.1452
      9 N         143.7529  142.8362  167.2388 N.ar    1  UNL1       -0.3118
     10 H         144.4990  143.4320  167.4789 H       1  UNL1        0.1700
     11 N         143.8194  143.7351  164.8021 N.pl3   1  UNL1       -0.2816
     12 H         144.6623  144.2074  164.9908 H       1  UNL1        0.1551
     13 C         140.0874  145.9328  161.9310 C.3     1  UNL1        0.0307
     14 C         141.2706  145.0176  162.0436 C.ar    1  UNL1       -0.0244
     15 C         141.9534  144.8339  163.3665 C.ar    1  UNL1        0.0132
     16 C         143.1365  143.9188  163.4792 C.ar    1  UNL1        0.0845
     17 C         143.6369  143.1874  162.2690 C.ar    1  UNL1        0.1513
     18 C         142.9540  143.3711  160.9461 C.ar    1  UNL1        0.0336
     19 C         141.7710  144.2861  160.8334 C.ar    1  UNL1       -0.0233
     20 C         141.0882  144.4698  159.5105 C.3     1  UNL1        0.0249
     21 C         140.0186  143.5108  159.0790 C.3     1  UNL1        0.0217
     22 C         139.3358  143.6945  157.7561 C.3     1  UNL1        0.0725
     23 N         139.7225  144.8372  156.8648 N.3     1  UNL1       -0.2715
     24 C         139.0398  145.0210  155.5418 C.3     1  UNL1        0.0896
     25 C         140.7921  145.7963  157.2963 C.3     1  UNL1        0.0725
     26 C         141.4749  145.6126  158.6192 C.3     1  UNL1        0.0217
     27 O         144.8200  142.2722  162.3817 O.3     1  UNL1       -0.4779
     28 C         144.6275  140.8460  162.8046 C.3     1  UNL1        0.1662
     29 C         143.8120  139.9157  161.9564 C.3     1  UNL1        0.0472
     30 C         145.2505  140.3501  164.0758 C.3     1  UNL1        0.0472
     31 N         140.3426  140.1130  166.1414 N.pl3   1  UNL1       -0.2968
     32 H         139.5446  140.0672  166.7162 H       1  UNL1        0.1536
     33 C         140.4216  139.2752  164.8997 C.ar    1  UNL1        0.0667
     34 C         141.0672  137.9222  164.9476 C.ar    1  UNL1        0.0159
     35 C         141.1461  137.0844  163.7059 C.ar    1  UNL1        0.0014
     36 C         140.5794  137.5998  162.4162 C.ar    1  UNL1        0.0014
     37 C         139.9338  138.9528  162.3683 C.ar    1  UNL1        0.0196
     38 C         139.8549  139.7906  163.6100 C.ar    1  UNL1        0.1189
     39 S         139.2092  141.1436  163.5621 S.O2    1  UNL1        0.0082
     40 O         140.3189  141.6421  162.6845 O.2     1  UNL1       -0.1686
     41 O         138.0995  140.6452  164.4396 O.2     1  UNL1       -0.1686
     42 C         138.5636  142.4967  163.5141 C.3     1  UNL1        0.1340
     43 C         138.6096  143.3928  164.7161 C.3     1  UNL1        0.0257
     44 C         137.8718  142.9537  162.2640 C.3     1  UNL1        0.0257
@<TRIPOS>BOND
     1    13    14    1
     2    14    15   ar
     3    15    16   ar
     4    16    11    1
     5    11     1    1
     6     1     2   ar
     7     2     3   ar
     8     3    31    1
     9    31    33    1
    10    33    34   ar
    11    34    35   ar
    12    35    36   ar
    13    36    37   ar
    14    37    38   ar
    15    38    39    1
    16    39    40    2
    17    39    41    2
    18    39    42    1
    19    42    43    1
    20    42    44    1
    21     3     4   ar
    22     4     5   ar
    23     5     6   ar
    24     6     7   ar
    25     7     8   ar
    26     8     9   ar
    27    16    17   ar
    28    17    27    1
    29    27    28    1
    30    28    29    1
    31    28    30    1
    32    17    18   ar
    33    18    19   ar
    34    19    20    1
    35    20    21    1
    36    21    22    1
    37    22    23    1
    38    23    24    1
    39    23    25    1
    40    25    26    1
    41    19    14   ar
    42    26    20    1
    43     9     1   ar
    44    38    33   ar
    45     8     4    1
    46    11    12    1
    47    31    32    1
    48     9    10    1
@<TRIPOS>MOLECULE
*****
 44 48 0 0 0
SMALL
GASTEIGER

@<TRIPOS>ATOM
      1 C         139.1935  140.0298  166.2672 C.ar    1  UNL1        0.2006
      2 N         140.5801  140.1488  165.7077 N.ar    1  UNL1       -0.2000
      3 C         141.7638  140.1423  166.6292 C.ar    1  UNL1        0.1379
      4 C         141.5607  140.0168  168.1100 C.ar    1  UNL1        0.0673
      5 C         142.5276  139.9812  169.2562 C.ar    1  UNL1        0.0265
      6 C         141.7386  139.8401  170.5240 C.ar    1  UNL1        0.1007
      7 N         140.2839  139.7886  170.1614 N.ar    1  UNL1       -0.2268
      8 C         140.1740  139.8978  168.6695 C.ar    1  UNL1        0.1452
      9 N         138.9904  139.9043  167.7481 N.ar    1  UNL1       -0.3118
     10 H         138.0803  139.8262  168.1152 H       1  UNL1        0.1700
     11 N         138.0098  140.0363  165.3458 N.pl3   1  UNL1       -0.2816
     12 H         137.1046  139.8949  165.7062 H       1  UNL1        0.1551
     13 C         139.0457  138.1636  160.6107 C.3     1  UNL1        0.0307
     14 C         138.7233  139.3218  161.5077 C.ar    1  UNL1       -0.0244
     15 C         138.5277  139.0999  162.9782 C.ar    1  UNL1        0.0132
     16 C         138.2053  140.2582  163.8752 C.ar    1  UNL1        0.0845
     17 C         138.0785  141.6383  163.3017 C.ar    1  UNL1        0.1513
     18 C         138.2741  141.8603  161.8310 C.ar    1  UNL1        0.0336
     19 C         138.5964  140.7021  160.9341 C.ar    1  UNL1       -0.0233
     20 C         138.7920  140.9240  159.4636 C.3     1  UNL1        0.0249
     21 C         140.1407  141.3161  158.9371 C.3     1  UNL1        0.0217
     22 C         140.3363  141.5381  157.4665 C.3     1  UNL1        0.0725
     23 N         139.1831  141.3679  156.5225 N.3     1  UNL1       -0.2715
     24 C         139.3786  141.5898  155.0519 C.3     1  UNL1        0.0896
     25 C         137.8344  140.9757  157.0490 C.3     1  UNL1        0.0725
     26 C         137.6388  140.7538  158.5195 C.3     1  UNL1        0.0217
     27 O         137.7561  142.7966  164.1986 O.3     1  UNL1       -0.4779
     28 C         138.8552  143.6864  164.6989 C.3     1  UNL1        0.1662
     29 C         138.5216  144.9313  165.4664 C.3     1  UNL1        0.0472
     30 C         140.2878  143.3312  164.4319 C.3     1  UNL1        0.0472
     31 N         143.1504  140.2614  166.0696 N.pl3   1  UNL1       -0.2968
     32 H         143.8337  139.5913  166.3008 H       1  UNL1        0.1536
     33 C         143.4960  141.4012  165.1579 C.ar    1  UNL1        0.0667
     34 C         143.7911  142.7561  165.7297 C.ar    1  UNL1        0.0159
     35 C         144.1367  143.8959  164.8179 C.ar    1  UNL1        0.0014
     36 C         144.1871  143.6808  163.3342 C.ar    1  UNL1        0.0014
     37 C         143.8919  142.3258  162.7624 C.ar    1  UNL1        0.0196
     38 C         143.5464  141.1860  163.6742 C.ar    1  UNL1        0.1189
     39 S         143.2512  139.8311  163.1024 S.O2    1  UNL1        0.0082
     40 O         141.9535  140.3454  162.5536 O.2     1  UNL1       -0.1686
     41 O         144.5490  139.3168  163.6513 O.2     1  UNL1       -0.1686
     42 C         142.9561  138.4761  162.5306 C.3     1  UNL1        0.1340
     43 C         143.7755  137.9485  161.3905 C.3     1  UNL1        0.0257
     44 C         141.8414  137.6489  163.0990 C.3     1  UNL1        0.0257
@<TRIPOS>BOND
     1    13    14    1
     2    14    15   ar
     3    15    16   ar
     4    16    11    1
     5    11     1    1
     6     1     2   ar
     7     2     3   ar
     8     3    31    1
     9    31    33    1
    10    33    34   ar
    11    34    35   ar
    12    35    36   ar
    13    36    37   ar
    14    37    38   ar
    15    38    39    1
    16    39    40    2
    17    39    41    2
    18    39    42    1
    19    42    43    1
    20    42    44    1
    21     3     4   ar
    22     4     5   ar
    23     5     6   ar
    24     6     7   ar
    25     7     8   ar
    26     8     9   ar
    27    16    17   ar
    28    17    27    1
    29    27    28    1
    30    28    29    1
    31    28    30    1
    32    17    18   ar
    33    18    19   ar
    34    19    20    1
    35    20    21    1
    36    21    22    1
    37    22    23    1
    38    23    24    1
    39    23    25    1
    40    25    26    1
    41    19    14   ar
    42    26    20    1
    43     9     1   ar
    44    38    33   ar
    45     8     4    1
    46    11    12    1
    47    31    32    1
    48     9    10    1
@<TRIPOS>MOLECULE
*****
 44 48 0 0 0
SMALL
GASTEIGER

@<TRIPOS>ATOM
      1 C         142.0256  138.9995  165.1661 C.ar    1  UNL1        0.2006
      2 N         141.8501  140.4010  164.6611 N.ar    1  UNL1       -0.2000
      3 C         142.0554  141.5631  165.5871 C.ar    1  UNL1        0.1379
      4 C         142.4362  141.3237  167.0180 C.ar    1  UNL1        0.0673
      5 C         142.7038  142.2634  168.1561 C.ar    1  UNL1        0.0265
      6 C         143.0447  141.4427  169.3645 C.ar    1  UNL1        0.1007
      7 N         142.9879  139.9957  168.9732 N.ar    1  UNL1       -0.2268
      8 C         142.6118  139.9222  167.5230 C.ar    1  UNL1        0.1452
      9 N         142.4065  138.7601  166.5970 N.ar    1  UNL1       -0.3118
     10 H         142.5217  137.8403  166.9284 H       1  UNL1        0.1700
     11 N         141.8203  137.8374  164.2401 N.pl3   1  UNL1       -0.2816
     12 H         142.0306  136.9242  164.5421 H       1  UNL1        0.1551
     13 C         142.6745  138.7850  159.2029 C.3     1  UNL1        0.0307
     14 C         141.7218  138.5404  160.3354 C.ar    1  UNL1       -0.0244
     15 C         142.2474  138.3112  161.7215 C.ar    1  UNL1        0.0132
     16 C         141.2947  138.0666  162.8540 C.ar    1  UNL1        0.0845
     17 C         139.8164  138.0513  162.6005 C.ar    1  UNL1        0.1513
     18 C         139.2907  138.2806  161.2144 C.ar    1  UNL1        0.0336
     19 C         140.2433  138.5251  160.0819 C.ar    1  UNL1       -0.0233
     20 C         139.7177  138.7544  158.6959 C.3     1  UNL1        0.0249
     21 C         138.9801  140.0200  158.3733 C.3     1  UNL1        0.0217
     22 C         138.4545  140.2492  156.9872 C.3     1  UNL1        0.0725
     23 N         138.6665  139.2128  155.9238 N.3     1  UNL1       -0.2715
     24 C         138.1409  139.4420  154.5376 C.3     1  UNL1        0.0896
     25 C         139.4041  137.9472  156.2464 C.3     1  UNL1        0.0725
     26 C         139.9298  137.7180  157.6324 C.3     1  UNL1        0.0217
     27 O         138.8637  137.8067  163.7330 O.3     1  UNL1       -0.4779
     28 C         138.4807  138.9325  164.6473 C.3     1  UNL1        0.1662
     29 C         138.4043  138.7035  166.1277 C.3     1  UNL1        0.0472
     30 C         138.1740  140.2873  164.0811 C.3     1  UNL1        0.0472
     31 N         141.8798  142.9646  165.0820 N.pl3   1  UNL1       -0.2968
     32 H         142.6360  143.5946  165.1052 H       1  UNL1        0.1536
     33 C         140.5521  143.4062  164.5416 C.ar    1  UNL1        0.0667
     34 C         139.4882  143.8997  165.4768 C.ar    1  UNL1        0.0159
     35 C         138.1605  144.3413  164.9362 C.ar    1  UNL1        0.0014
     36 C         137.8967  144.2895  163.4605 C.ar    1  UNL1        0.0014
     37 C         138.9606  143.7960  162.5253 C.ar    1  UNL1        0.0196
     38 C         140.2883  143.3544  163.0659 C.ar    1  UNL1        0.1189
     39 S         141.3522  142.8609  162.1307 S.O2    1  UNL1        0.0082
     40 O         140.5480  141.6219  161.8697 O.2     1  UNL1       -0.1686
     41 O         142.1563  144.0999  162.3917 O.2     1  UNL1       -0.1686
     42 C         142.4161  142.3674  161.1955 C.3     1  UNL1        0.1340
     43 C         143.6817  141.7777  161.7435 C.3     1  UNL1        0.0257
     44 C         142.2143  142.4637  159.7122 C.3     1  UNL1        0.0257
@<TRIPOS>BOND
     1    13    14    1
     2    14    15   ar
     3    15    16   ar
     4    16    11    1
     5    11     1    1
     6     1     2   ar
     7     2     3   ar
     8     3    31    1
     9    31    33    1
    10    33    34   ar
    11    34    35   ar
    12    35    36   ar
    13    36    37   ar
    14    37    38   ar
    15    38    39    1
    16    39    40    2
    17    39    41    2
    18    39    42    1
    19    42    43    1
    20    42    44    1
    21     3     4   ar
    22     4     5   ar
    23     5     6   ar
    24     6     7   ar
    25     7     8   ar
    26     8     9   ar
    27    16    17   ar
    28    17    27    1
    29    27    28    1
    30    28    29    1
    31    28    30    1
    32    17    18   ar
    33    18    19   ar
    34    19    20    1
    35    20    21    1
    36    21    22    1
    37    22    23    1
    38    23    24    1
    39    23    25    1
    40    25    26    1
    41    19    14   ar
    42    26    20    1
    43     9     1   ar
    44    38    33   ar
    45     8     4    1
    46    11    12    1
    47    31    32    1
    48     9    10    1
@<TRIPOS>MOLECULE
*****
 44 48 0 0 0
SMALL
GASTEIGER

@<TRIPOS>ATOM
      1 C         142.0347  139.3537  160.6882 C.ar    1  UNL1        0.2006
      2 N         142.3343  140.8072  160.9059 N.ar    1  UNL1       -0.2000
      3 C         143.0871  141.5819  159.8652 C.ar    1  UNL1        0.1379
      4 C         143.5402  140.9031  158.6067 C.ar    1  UNL1        0.0673
      5 C         144.2950  141.4049  157.4115 C.ar    1  UNL1        0.0265
      6 C         144.4618  140.2614  156.4551 C.ar    1  UNL1        0.1007
      7 N         143.8102  139.0530  157.0592 N.ar    1  UNL1       -0.2268
      8 C         143.2406  139.4495  158.3890 C.ar    1  UNL1        0.1452
      9 N         142.4878  138.6748  159.4297 N.ar    1  UNL1       -0.3118
     10 H         142.2912  137.7208  159.2868 H       1  UNL1        0.1700
     11 N         141.2819  138.5789  161.7290 N.pl3   1  UNL1       -0.2816
     12 H         140.9449  137.6771  161.5234 H       1  UNL1        0.1551
     13 C         142.8563  139.4614  166.6017 C.3     1  UNL1        0.0307
     14 C         141.8298  139.6196  165.5194 C.ar    1  UNL1       -0.0244
     15 C         142.0691  139.0202  164.1654 C.ar    1  UNL1        0.0132
     16 C         141.0426  139.1784  163.0830 C.ar    1  UNL1        0.0845
     17 C         139.7769  139.9360  163.3547 C.ar    1  UNL1        0.1513
     18 C         139.5376  140.5355  164.7089 C.ar    1  UNL1        0.0336
     19 C         140.5640  140.3773  165.7911 C.ar    1  UNL1       -0.0233
     20 C         140.3247  140.9768  167.1451 C.3     1  UNL1        0.0249
     21 C         139.6641  140.1641  168.2190 C.3     1  UNL1        0.0217
     22 C         139.4248  140.7636  169.5730 C.3     1  UNL1        0.0725
     23 N         139.8462  142.1756  169.8532 N.3     1  UNL1       -0.2715
     24 C         139.6070  142.7752  171.2072 C.3     1  UNL1        0.0896
     25 C         140.5069  142.9882  168.7793 C.3     1  UNL1        0.0725
     26 C         140.7462  142.3888  167.4253 C.3     1  UNL1        0.0217
     27 O         138.7504  140.0943  162.2725 O.3     1  UNL1       -0.4779
     28 C         138.6372  141.3928  161.5303 C.3     1  UNL1        0.1662
     29 C         139.0140  141.4632  160.0801 C.3     1  UNL1        0.0472
     30 C         138.1471  142.6210  162.2382 C.3     1  UNL1        0.0472
     31 N         143.3867  143.0355  160.0830 N.pl3   1  UNL1       -0.2968
     32 H         144.2713  143.3967  159.8457 H       1  UNL1        0.1536
     33 C         142.3386  143.9387  160.6623 C.ar    1  UNL1        0.0667
     34 C         141.3061  144.5594  159.7687 C.ar    1  UNL1        0.0159
     35 C         140.2580  145.4625  160.3481 C.ar    1  UNL1        0.0014
     36 C         140.2425  145.7451  161.8212 C.ar    1  UNL1        0.0014
     37 C         141.2750  145.1244  162.7148 C.ar    1  UNL1        0.0196
     38 C         142.3231  144.2212  162.1354 C.ar    1  UNL1        0.1189
     39 S         143.3557  143.6006  163.0290 S.O2    1  UNL1        0.0082
     40 O         144.4153  144.4538  162.3973 O.2     1  UNL1       -0.1686
     41 O         142.2960  142.7473  163.6608 O.2     1  UNL1       -0.1686
     42 C         144.3882  142.9799  163.9227 C.3     1  UNL1        0.1340
     43 C         144.4210  143.3234  165.3824 C.3     1  UNL1        0.0257
     44 C         145.3881  142.0156  163.3565 C.3     1  UNL1        0.0257
@<TRIPOS>BOND
     1    13    14    1
     2    14    15   ar
     3    15    16   ar
     4    16    11    1
     5    11     1    1
     6     1     2   ar
     7     2     3   ar
     8     3    31    1
     9    31    33    1
    10    33    34   ar
    11    34    35   ar
    12    35    36   ar
    13    36    37   ar
    14    37    38   ar
    15    38    39    1
    16    39    40    2
    17    39    41    2
    18    39    42    1
    19    42    43    1
    20    42    44    1
    21     3     4   ar
    22     4     5   ar
    23     5     6   ar
    24     6     7   ar
    25     7     8   ar
    26     8     9   ar
    27    16    17   ar
    28    17    27    1
    29    27    28    1
    30    28    29    1
    31    28    30    1
    32    17    18   ar
    33    18    19   ar
    34    19    20    1
    35    20    21    1
    36    21    22    1
    37    22    23    1
    38    23    24    1
    39    23    25    1
    40    25    26    1
    41    19    14   ar
    42    26    20    1
    43     9     1   ar
    44    38    33   ar
    45     8     4    1
    46    11    12    1
    47    31    32    1
    48     9    10    1
@<TRIPOS>MOLECULE
*****
 44 48 0 0 0
SMALL
GASTEIGER

@<TRIPOS>ATOM
      1 C         139.5722  139.3682  165.1527 C.ar    1  UNL1        0.2006
      2 N         140.2955  140.6653  164.9428 N.ar    1  UNL1       -0.2000
      3 C         140.5555  141.5759  166.1061 C.ar    1  UNL1        0.1379
      4 C         140.0921  141.1892  167.4793 C.ar    1  UNL1        0.0673
      5 C         140.2040  141.8777  168.8073 C.ar    1  UNL1        0.0265
      6 C         139.5498  141.0060  169.8379 C.ar    1  UNL1        0.1007
      7 N         139.0336  139.7787  169.1469 N.ar    1  UNL1       -0.2268
      8 C         139.3688  139.8920  167.6892 C.ar    1  UNL1        0.1452
      9 N         139.1088  138.9815  166.5259 N.ar    1  UNL1       -0.3118
     10 H         138.6341  138.1301  166.6636 H       1  UNL1        0.1700
     11 N         139.3122  138.4576  163.9893 N.pl3   1  UNL1       -0.2816
     12 H         138.6134  137.7669  164.0514 H       1  UNL1        0.1551
     13 C         143.7031  137.6256  161.3383 C.3     1  UNL1        0.0307
     14 C         142.3124  138.1835  161.4059 C.ar    1  UNL1       -0.0244
     15 C         141.5077  138.0416  162.6637 C.ar    1  UNL1        0.0132
     16 C         140.1169  138.5995  162.7314 C.ar    1  UNL1        0.0845
     17 C         139.5309  139.2993  161.5411 C.ar    1  UNL1        0.1513
     18 C         140.3356  139.4412  160.2832 C.ar    1  UNL1        0.0336
     19 C         141.7263  138.8833  160.2155 C.ar    1  UNL1       -0.0233
     20 C         142.5310  139.0252  158.9577 C.3     1  UNL1        0.0249
     21 C         143.4229  140.2163  158.7682 C.3     1  UNL1        0.0217
     22 C         144.2276  140.3582  157.5103 C.3     1  UNL1        0.0725
     23 N         144.1404  139.3090  156.4419 N.3     1  UNL1       -0.2715
     24 C         144.9451  139.4508  155.1839 C.3     1  UNL1        0.0896
     25 C         143.2486  138.1179  156.6314 C.3     1  UNL1        0.0725
     26 C         142.4439  137.9760  157.8892 C.3     1  UNL1        0.0217
     27 O         138.1401  139.8572  161.6087 O.3     1  UNL1       -0.4779
     28 C         137.9262  141.2960  161.9750 C.3     1  UNL1        0.1662
     29 C         138.3496  142.3814  161.0303 C.3     1  UNL1        0.0472
     30 C         137.2888  141.6493  163.2861 C.3     1  UNL1        0.0472
     31 N         141.2788  142.8731  165.8962 N.pl3   1  UNL1       -0.2968
     32 H         141.8300  143.2520  166.6186 H       1  UNL1        0.1536
     33 C         141.1624  143.5931  164.5855 C.ar    1  UNL1        0.0667
     34 C         140.0463  144.5702  164.3629 C.ar    1  UNL1        0.0159
     35 C         139.9300  145.2901  163.0521 C.ar    1  UNL1        0.0014
     36 C         140.9298  145.0330  161.9639 C.ar    1  UNL1        0.0014
     37 C         142.0460  144.0560  162.1865 C.ar    1  UNL1        0.0196
     38 C         142.1623  143.3360  163.4972 C.ar    1  UNL1        0.1189
     39 S         143.2785  142.3590  163.7198 S.O2    1  UNL1        0.0082
     40 O         142.6617  141.4266  162.7197 O.2     1  UNL1       -0.1686
     41 O         143.8952  143.2914  164.7199 O.2     1  UNL1       -0.1686
     42 C         144.3946  141.3820  163.9423 C.3     1  UNL1        0.1340
     43 C         145.7968  141.7431  163.5506 C.3     1  UNL1        0.0257
     44 C         144.1086  140.0438  164.5567 C.3     1  UNL1        0.0257
@<TRIPOS>BOND
     1    13    14    1
     2    14    15   ar
     3    15    16   ar
     4    16    11    1
     5    11     1    1
     6     1     2   ar
     7     2     3   ar
     8     3    31    1
     9    31    33    1
    10    33    34   ar
    11    34    35   ar
    12    35    36   ar
    13    36    37   ar
    14    37    38   ar
    15    38    39    1
    16    39    40    2
    17    39    41    2
    18    39    42    1
    19    42    43    1
    20    42    44    1
    21     3     4   ar
    22     4     5   ar
    23     5     6   ar
    24     6     7   ar
    25     7     8   ar
    26     8     9   ar
    27    16    17   ar
    28    17    27    1
    29    27    28    1
    30    28    29    1
    31    28    30    1
    32    17    18   ar
    33    18    19   ar
    34    19    20    1
    35    20    21    1
    36    21    22    1
    37    22    23    1
    38    23    24    1
    39    23    25    1
    40    25    26    1
    41    19    14   ar
    42    26    20    1
    43     9     1   ar
    44    38    33   ar
    45     8     4    1
    46    11    12    1
    47    31    32    1
    48     9    10    1
@<TRIPOS>MOLECULE
*****
 44 48 0 0 0
SMALL
GASTEIGER

@<TRIPOS>ATOM
      1 C         141.8542  138.1035  161.0618 C.ar    1  UNL1        0.2006
      2 N         140.8911  139.2295  160.8291 N.ar    1  UNL1       -0.2000
      3 C         140.7872  139.8593  159.4716 C.ar    1  UNL1        0.1379
      4 C         141.6467  139.3630  158.3469 C.ar    1  UNL1        0.0673
      5 C         141.7639  139.7842  156.9120 C.ar    1  UNL1        0.0265
      6 C         142.7996  138.9185  156.2580 C.ar    1  UNL1        0.1007
      7 N         143.3224  137.9622  157.2886 N.ar    1  UNL1       -0.2268
      8 C         142.6099  138.2369  158.5796 C.ar    1  UNL1        0.1452
      9 N         142.7137  137.6071  159.9370 N.ar    1  UNL1       -0.3118
     10 H         143.3459  136.8680  160.0898 H       1  UNL1        0.1700
     11 N         141.9581  137.4737  162.4192 N.pl3   1  UNL1       -0.2816
     12 H         142.2441  136.5356  162.5061 H       1  UNL1        0.1551
     13 C         138.4960  139.0671  165.9513 C.3     1  UNL1        0.0307
     14 C         139.8950  139.0699  165.4103 C.ar    1  UNL1       -0.0244
     15 C         140.2270  138.2704  164.1853 C.ar    1  UNL1        0.0132
     16 C         141.6261  138.2731  163.6442 C.ar    1  UNL1        0.0845
     17 C         142.6931  139.0753  164.3282 C.ar    1  UNL1        0.1513
     18 C         142.3611  139.8748  165.5533 C.ar    1  UNL1        0.0336
     19 C         140.9622  139.8721  166.0943 C.ar    1  UNL1       -0.0233
     20 C         140.6302  140.6715  167.3193 C.3     1  UNL1        0.0249
     21 C         140.6935  142.1696  167.2771 C.3     1  UNL1        0.0217
     22 C         140.3615  142.9691  168.5021 C.3     1  UNL1        0.0725
     23 N         139.9662  142.2704  169.7693 N.3     1  UNL1       -0.2715
     24 C         139.6341  143.0698  170.9944 C.3     1  UNL1        0.0896
     25 C         139.9029  140.7723  169.8114 C.3     1  UNL1        0.0725
     26 C         140.2349  139.9729  168.5864 C.3     1  UNL1        0.0217
     27 O         144.0922  139.0781  163.7872 O.3     1  UNL1       -0.4779
     28 C         144.6465  140.3164  163.1475 C.3     1  UNL1        0.1662
     29 C         145.6111  141.1828  163.9018 C.3     1  UNL1        0.0472
     30 C         144.2362  140.6884  161.7535 C.3     1  UNL1        0.0472
     31 N         139.8240  140.9854  159.2390 N.pl3   1  UNL1       -0.2968
     32 H         138.9069  140.7941  158.9363 H       1  UNL1        0.1536
     33 C         140.2580  142.4029  159.4675 C.ar    1  UNL1        0.0667
     34 C         141.0809  143.1115  158.4327 C.ar    1  UNL1        0.0159
     35 C         141.5148  144.5290  158.6613 C.ar    1  UNL1        0.0014
     36 C         141.1260  145.2379  159.9247 C.ar    1  UNL1        0.0014
     37 C         140.3031  144.5294  160.9595 C.ar    1  UNL1        0.0196
     38 C         139.8691  143.1119  160.7309 C.ar    1  UNL1        0.1189
     39 S         139.0462  142.4033  161.7657 S.O2    1  UNL1        0.0082
     40 O         140.3003  141.9475  162.4508 O.2     1  UNL1       -0.1686
     41 O         137.7921  142.8591  161.0805 O.2     1  UNL1       -0.1686
     42 C         138.2234  141.6948  162.8005 C.3     1  UNL1        0.1340
     43 C         137.6437  140.3439  162.5018 C.3     1  UNL1        0.0257
     44 C         137.9801  142.3371  164.1340 C.3     1  UNL1        0.0257
@<TRIPOS>BOND
     1    13    14    1
     2    14    15   ar
     3    15    16   ar
     4    16    11    1
     5    11     1    1
     6     1     2   ar
     7     2     3   ar
     8     3    31    1
     9    31    33    1
    10    33    34   ar
    11    34    35   ar
    12    35    36   ar
    13    36    37   ar
    14    37    38   ar
    15    38    39    1
    16    39    40    2
    17    39    41    2
    18    39    42    1
    19    42    43    1
    20    42    44    1
    21     3     4   ar
    22     4     5   ar
    23     5     6   ar
    24     6     7   ar
    25     7     8   ar
    26     8     9   ar
    27    16    17   ar
    28    17    27    1
    29    27    28    1
    30    28    29    1
    31    28    30    1
    32    17    18   ar
    33    18    19   ar
    34    19    20    1
    35    20    21    1
    36    21    22    1
    37    22    23    1
    38    23    24    1
    39    23    25    1
    40    25    26    1
    41    19    14   ar
    42    26    20    1
    43     9     1   ar
    44    38    33   ar
    45     8     4    1
    46    11    12    1
    47    31    32    1
    48     9    10    1
@<TRIPOS>MOLECULE
*****
 44 48 0 0 0
SMALL
GASTEIGER

@<TRIPOS>ATOM
      1 C         141.7167  144.7738  160.5117 C.ar    1  UNL1        0.2006
      2 N         141.1955  143.3801  160.3226 N.ar    1  UNL1       -0.2000
      3 C         140.6623  142.9535  158.9870 C.ar    1  UNL1        0.1379
      4 C         140.6502  143.9207  157.8406 C.ar    1  UNL1        0.0673
      5 C         140.1897  143.7869  156.4193 C.ar    1  UNL1        0.0265
      6 C         140.4263  145.0980  155.7300 C.ar    1  UNL1        0.1007
      7 N         141.0330  146.0421  156.7253 N.ar    1  UNL1       -0.2268
      8 C         141.1714  145.3145  158.0297 C.ar    1  UNL1        0.1452
      9 N         141.7047  145.7410  159.3652 N.ar    1  UNL1       -0.3118
     10 H         142.0467  146.6558  159.4894 H       1  UNL1        0.1700
     11 N         142.2500  145.2004  161.8472 N.pl3   1  UNL1       -0.2816
     12 H         142.8725  145.9606  161.9087 H       1  UNL1        0.1551
     13 C         138.6268  144.0365  165.3855 C.3     1  UNL1        0.0307
     14 C         140.0231  143.8867  164.8582 C.ar    1  UNL1       -0.0244
     15 C         140.4384  144.6184  163.6164 C.ar    1  UNL1        0.0132
     16 C         141.8347  144.4687  163.0891 C.ar    1  UNL1        0.0845
     17 C         142.8157  143.5872  163.8036 C.ar    1  UNL1        0.1513
     18 C         142.4004  142.8554  165.0455 C.ar    1  UNL1        0.0336
     19 C         141.0042  143.0052  165.5727 C.ar    1  UNL1       -0.0233
     20 C         140.5889  142.2735  166.8145 C.3     1  UNL1        0.0249
     21 C         140.1008  140.8580  166.7232 C.3     1  UNL1        0.0217
     22 C         139.6855  140.1263  167.9650 C.3     1  UNL1        0.0725
     23 N         139.7583  140.8100  169.2982 N.3     1  UNL1       -0.2715
     24 C         139.3430  140.0784  170.5401 C.3     1  UNL1        0.0896
     25 C         140.2464  142.2255  169.3895 C.3     1  UNL1        0.0725
     26 C         140.6617  142.9572  168.1477 C.3     1  UNL1        0.0217
     27 O         144.2119  143.4374  163.2763 O.3     1  UNL1       -0.4779
     28 C         144.7113  142.0893  162.8481 C.3     1  UNL1        0.1662
     29 C         145.7794  141.3981  163.6427 C.3     1  UNL1        0.0472
     30 C         144.1427  141.4326  161.6254 C.3     1  UNL1        0.0472
     31 N         140.1411  141.5597  158.7979 N.pl3   1  UNL1       -0.2968
     32 H         139.3104  141.4092  158.2914 H       1  UNL1        0.1536
     33 C         140.8855  140.3951  159.3806 C.ar    1  UNL1        0.0667
     34 C         141.9483  139.7063  158.5769 C.ar    1  UNL1        0.0159
     35 C         142.6928  138.5418  159.1596 C.ar    1  UNL1        0.0014
     36 C         142.3744  138.0660  160.5461 C.ar    1  UNL1        0.0014
     37 C         141.3115  138.7548  161.3498 C.ar    1  UNL1        0.0196
     38 C         140.5671  139.9194  160.7670 C.ar    1  UNL1        0.1189
     39 S         139.5043  140.6081  161.5707 S.O2    1  UNL1        0.0082
     40 O         138.4690  140.1688  160.5782 O.2     1  UNL1       -0.1686
     41 O         140.5396  141.0475  162.5633 O.2     1  UNL1       -0.1686
     42 C         138.4415  141.2969  162.3744 C.3     1  UNL1        0.1340
     43 C         137.8969  142.6190  161.9212 C.3     1  UNL1        0.0257
     44 C         137.9232  140.6635  163.6316 C.3     1  UNL1        0.0257
@<TRIPOS>BOND
     1    13    14    1
     2    14    15   ar
     3    15    16   ar
     4    16    11    1
     5    11     1    1
     6     1     2   ar
     7     2     3   ar
     8     3    31    1
     9    31    33    1
    10    33    34   ar
    11    34    35   ar
    12    35    36   ar
    13    36    37   ar
    14    37    38   ar
    15    38    39    1
    16    39    40    2
    17    39    41    2
    18    39    42    1
    19    42    43    1
    20    42    44    1
    21     3     4   ar
    22     4     5   ar
    23     5     6   ar
    24     6     7   ar
    25     7     8   ar
    26     8     9   ar
    27    16    17   ar
    28    17    27    1
    29    27    28    1
    30    28    29    1
    31    28    30    1
    32    17    18   ar
    33    18    19   ar
    34    19    20    1
    35    20    21    1
    36    21    22    1
    37    22    23    1
    38    23    24    1
    39    23    25    1
    40    25    26    1
    41    19    14   ar
    42    26    20    1
    43     9     1   ar
    44    38    33   ar
    45     8     4    1
    46    11    12    1
    47    31    32    1
    48     9    10    1
@<TRIPOS>MOLECULE
*****
 44 48 0 0 0
SMALL
GASTEIGER

@<TRIPOS>ATOM
      1 C         139.7100  139.3018  165.1117 C.ar    1  UNL1        0.2006
      2 N         140.5727  140.5125  164.9125 N.ar    1  UNL1       -0.2000
      3 C         140.8630  141.4249  166.0672 C.ar    1  UNL1        0.1379
      4 C         140.2905  141.1264  167.4212 C.ar    1  UNL1        0.0673
      5 C         140.4022  141.8377  168.7371 C.ar    1  UNL1        0.0265
      6 C         139.6084  141.0664  169.7496 C.ar    1  UNL1        0.1007
      7 N         139.0062  139.8786  169.0594 N.ar    1  UNL1       -0.2268
      8 C         139.4278  139.9156  167.6203 C.ar    1  UNL1        0.1452
      9 N         139.1375  139.0033  166.4656 N.ar    1  UNL1       -0.3118
     10 H         138.5713  138.2087  166.5963 H       1  UNL1        0.1700
     11 N         139.4197  138.3894  163.9569 N.pl3   1  UNL1       -0.2816
     12 H         138.7161  137.7053  164.0349 H       1  UNL1        0.1551
     13 C         143.8135  137.6624  161.2798 C.3     1  UNL1        0.0307
     14 C         142.3985  138.1560  161.3448 C.ar    1  UNL1       -0.0244
     15 C         141.6166  138.0260  162.6183 C.ar    1  UNL1        0.0132
     16 C         140.2016  138.5195  162.6835 C.ar    1  UNL1        0.0845
     17 C         139.5685  139.1431  161.4750 C.ar    1  UNL1        0.1513
     18 C         140.3504  139.2731  160.2015 C.ar    1  UNL1        0.0336
     19 C         141.7653  138.7796  160.1364 C.ar    1  UNL1       -0.0233
     20 C         142.5472  138.9097  158.8629 C.3     1  UNL1        0.0249
     21 C         142.5008  137.8143  157.8392 C.3     1  UNL1        0.0217
     22 C         143.2827  137.9443  156.5657 C.3     1  UNL1        0.0725
     23 N         144.1109  139.1697  156.3160 N.3     1  UNL1       -0.2715
     24 C         144.8929  139.2999  155.0425 C.3     1  UNL1        0.0896
     25 C         144.1573  140.2651  157.3397 C.3     1  UNL1        0.0725
     26 C         143.3754  140.1351  158.6132 C.3     1  UNL1        0.0217
     27 O         138.1535  139.6366  161.5401 O.3     1  UNL1       -0.4779
     28 C         137.8750  141.0759  161.8579 C.3     1  UNL1        0.1662
     29 C         137.3609  141.4586  163.2140 C.3     1  UNL1        0.0472
     30 C         138.1108  142.1324  160.8195 C.3     1  UNL1        0.0472
     31 N         141.7258  142.6357  165.8680 N.pl3   1  UNL1       -0.2968
     32 H         141.5845  143.4374  166.4217 H       1  UNL1        0.1536
     33 C         142.8038  142.6251  164.8250 C.ar    1  UNL1        0.0667
     34 C         144.0541  141.8266  165.0468 C.ar    1  UNL1        0.0159
     35 C         145.1320  141.8160  164.0038 C.ar    1  UNL1        0.0014
     36 C         144.9597  142.6039  162.7390 C.ar    1  UNL1        0.0014
     37 C         143.7094  143.4024  162.5173 C.ar    1  UNL1        0.0196
     38 C         142.6315  143.4130  163.5603 C.ar    1  UNL1        0.1189
     39 S         141.3812  144.2115  163.3386 S.O2    1  UNL1        0.0082
     40 O         140.7425  143.0274  162.6753 O.2     1  UNL1       -0.1686
     41 O         142.0198  145.3956  164.0019 O.2     1  UNL1       -0.1686
     42 C         140.1309  145.0100  163.1169 C.3     1  UNL1        0.1340
     43 C         140.0477  145.9694  161.9669 C.3     1  UNL1        0.0257
     44 C         138.9637  144.8491  164.0453 C.3     1  UNL1        0.0257
@<TRIPOS>BOND
     1    13    14    1
     2    14    15   ar
     3    15    16   ar
     4    16    11    1
     5    11     1    1
     6     1     2   ar
     7     2     3   ar
     8     3    31    1
     9    31    33    1
    10    33    34   ar
    11    34    35   ar
    12    35    36   ar
    13    36    37   ar
    14    37    38   ar
    15    38    39    1
    16    39    40    2
    17    39    41    2
    18    39    42    1
    19    42    43    1
    20    42    44    1
    21     3     4   ar
    22     4     5   ar
    23     5     6   ar
    24     6     7   ar
    25     7     8   ar
    26     8     9   ar
    27    16    17   ar
    28    17    27    1
    29    27    28    1
    30    28    29    1
    31    28    30    1
    32    17    18   ar
    33    18    19   ar
    34    19    20    1
    35    20    21    1
    36    21    22    1
    37    22    23    1
    38    23    24    1
    39    23    25    1
    40    25    26    1
    41    19    14   ar
    42    26    20    1
    43     9     1   ar
    44    38    33   ar
    45     8     4    1
    46    11    12    1
    47    31    32    1
    48     9    10    1
@<TRIPOS>MOLECULE
*****
 44 48 0 0 0
SMALL
GASTEIGER

@<TRIPOS>ATOM
      1 C         139.2449  139.2929  165.7809 C.ar    1  UNL1        0.2006
      2 N         139.8558  140.5917  165.3456 N.ar    1  UNL1       -0.2000
      3 C         140.2655  141.6084  166.3697 C.ar    1  UNL1        0.1379
      4 C         140.0642  141.3260  167.8291 C.ar    1  UNL1        0.0673
      5 C         140.3674  142.1306  169.0582 C.ar    1  UNL1        0.0265
      6 C         139.9437  141.3289  170.2531 C.ar    1  UNL1        0.1007
      7 N         139.3787  140.0289  169.7625 N.ar    1  UNL1       -0.2268
      8 C         139.4531  140.0271  168.2643 C.ar    1  UNL1        0.1452
      9 N         139.0435  139.0105  167.2402 N.ar    1  UNL1       -0.3118
     10 H         138.6425  138.1580  167.5259 H       1  UNL1        0.1700
     11 N         138.8352  138.2762  164.7568 N.pl3   1  UNL1       -0.2816
     12 H         138.3583  137.4613  165.0355 H       1  UNL1        0.1551
     13 C         137.4032  139.9179  160.0393 C.3     1  UNL1        0.0307
     14 C         138.4362  139.3222  160.9493 C.ar    1  UNL1       -0.0244
     15 C         138.1192  139.0971  162.3980 C.ar    1  UNL1        0.0132
     16 C         139.1521  138.5013  163.3081 C.ar    1  UNL1        0.0845
     17 C         140.5021  138.1307  162.7693 C.ar    1  UNL1        0.1513
     18 C         140.8191  138.3558  161.3205 C.ar    1  UNL1        0.0336
     19 C         139.7862  138.9515  160.4105 C.ar    1  UNL1       -0.0233
     20 C         140.1032  139.1766  158.9618 C.3     1  UNL1        0.0249
     21 C         140.6883  140.4840  158.5164 C.3     1  UNL1        0.0217
     22 C         141.0052  140.7091  157.0677 C.3     1  UNL1        0.0725
     23 N         140.7371  139.6267  156.0644 N.3     1  UNL1       -0.2715
     24 C         141.0541  139.8517  154.6155 C.3     1  UNL1        0.0896
     25 C         140.1521  138.3193  156.5098 C.3     1  UNL1        0.0725
     26 C         139.8351  138.0942  157.9585 C.3     1  UNL1        0.0217
     27 O         141.5351  137.5349  163.6793 O.3     1  UNL1       -0.4779
     28 C         142.5620  138.4160  164.3267 C.3     1  UNL1        0.1662
     29 C         143.3841  139.3501  163.4891 C.3     1  UNL1        0.0472
     30 C         142.7667  138.3630  165.8117 C.3     1  UNL1        0.0472
     31 N         140.8766  142.9073  165.9344 N.pl3   1  UNL1       -0.2968
     32 H         140.4697  143.7600  166.2112 H       1  UNL1        0.1536
     33 C         142.1075  142.9071  165.0772 C.ar    1  UNL1        0.0667
     34 C         143.4607  142.7630  165.7081 C.ar    1  UNL1        0.0159
     35 C         144.6917  142.7628  164.8509 C.ar    1  UNL1        0.0014
     36 C         144.5693  142.9067  163.3628 C.ar    1  UNL1        0.0014
     37 C         143.2161  143.0508  162.7320 C.ar    1  UNL1        0.0196
     38 C         141.9852  143.0510  163.5892 C.ar    1  UNL1        0.1189
     39 S         140.6320  143.1951  162.9583 S.O2    1  UNL1        0.0082
     40 O         140.7748  141.8354  162.3413 O.2     1  UNL1       -0.1686
     41 O         140.4891  144.5548  163.5754 O.2     1  UNL1       -0.1686
     42 C         139.2788  143.3392  162.3274 C.3     1  UNL1        0.1340
     43 C         138.1087  143.7818  163.1550 C.3     1  UNL1        0.0257
     44 C         139.0957  143.0406  160.8689 C.3     1  UNL1        0.0257
@<TRIPOS>BOND
     1    13    14    1
     2    14    15   ar
     3    15    16   ar
     4    16    11    1
     5    11     1    1
     6     1     2   ar
     7     2     3   ar
     8     3    31    1
     9    31    33    1
    10    33    34   ar
    11    34    35   ar
    12    35    36   ar
    13    36    37   ar
    14    37    38   ar
    15    38    39    1
    16    39    40    2
    17    39    41    2
    18    39    42    1
    19    42    43    1
    20    42    44    1
    21     3     4   ar
    22     4     5   ar
    23     5     6   ar
    24     6     7   ar
    25     7     8   ar
    26     8     9   ar
    27    16    17   ar
    28    17    27    1
    29    27    28    1
    30    28    29    1
    31    28    30    1
    32    17    18   ar
    33    18    19   ar
    34    19    20    1
    35    20    21    1
    36    21    22    1
    37    22    23    1
    38    23    24    1
    39    23    25    1
    40    25    26    1
    41    19    14   ar
    42    26    20    1
    43     9     1   ar
    44    38    33   ar
    45     8     4    1
    46    11    12    1
    47    31    32    1
    48     9    10    1
