@<TRIPOS>MOLECULE
*****
 32 35 0 0 0
SMALL
GASTEIGER

@<TRIPOS>ATOM
      1 O         142.0376  142.5397  164.6553 O.2     1  UNL1       -0.2729
      2 C         142.2357  141.3266  165.5150 C.2     1  UNL1        0.2451
      3 N         143.4726  140.4921  165.3608 N.am    1  UNL1       -0.2988
      4 H         143.6028  139.6959  165.9250 H       1  UNL1        0.1498
      5 C         141.1971  140.9480  166.5289 C.3     1  UNL1        0.1751
      6 C         141.0028  141.5861  167.8725 C.ar    1  UNL1        0.0089
      7 C         141.7219  142.7052  168.5655 C.ar    1  UNL1       -0.0021
      8 C         141.2943  143.1356  169.9373 C.ar    1  UNL1       -0.0003
      9 C         140.1476  142.4469  170.6160 C.ar    1  UNL1        0.0001
     10 C         139.4285  141.3277  169.9230 C.ar    1  UNL1        0.0043
     11 C         139.8561  140.8973  168.5512 C.ar    1  UNL1        0.0516
     12 C         139.3417  139.8336  167.6271 C.2     1  UNL1        0.2493
     13 O         138.1991  138.9021  167.9042 O.2     1  UNL1       -0.2699
     14 N         140.1705  139.8650  166.3772 N.am    1  UNL1       -0.2676
     15 C         140.0022  138.9703  165.1850 C.3     1  UNL1        0.0813
     16 C         141.0583  137.9588  164.8514 C.3     1  UNL1        0.0520
     17 C         140.8901  137.0641  163.6592 C.3     1  UNL1        0.1439
     18 O         139.6657  137.1810  162.8007 O.3     1  UNL1       -0.3537
     19 C         138.6096  138.1926  163.1343 C.3     1  UNL1        0.1439
     20 C         138.7778  139.0872  164.3265 C.3     1  UNL1        0.0520
     21 C         144.5112  140.8707  164.3469 C.3     1  UNL1        0.1164
     22 C         144.3325  140.4820  162.9092 C.ar    1  UNL1       -0.0024
     23 C         144.1327  139.0418  162.5408 C.ar    1  UNL1        0.0005
     24 C         143.9540  138.6532  161.1031 C.ar    1  UNL1        0.0369
     25 C         143.9750  139.7049  160.0337 C.ar    1  UNL1        0.1468
     26 C         144.1747  141.1451  160.4021 C.ar    1  UNL1        0.0369
     27 C         144.3535  141.5337  161.8399 C.ar    1  UNL1        0.0005
     28 O         143.7962  139.3162  158.5960 O.3     1  UNL1       -0.4045
     29 C         142.4834  138.7633  158.1262 C.3     1  UNL1        0.5753
     30 F         141.1707  138.2103  157.6563 F       1  UNL1       -0.1328
     31 F         141.9051  140.1472  158.1134 F       1  UNL1       -0.1328
     32 F         143.0618  137.3793  158.1389 F       1  UNL1       -0.1328
@<TRIPOS>BOND
     1     1     2    2
     2     2     3   am
     3     3    21    1
     4    21    22    1
     5    22    23   ar
     6    23    24   ar
     7    24    25   ar
     8    25    28    1
     9    28    29    1
    10    29    30    1
    11    29    31    1
    12    29    32    1
    13    25    26   ar
    14    26    27   ar
    15     2     5    1
    16     5     6    1
    17     6     7   ar
    18     7     8   ar
    19     8     9   ar
    20     9    10   ar
    21    10    11   ar
    22    11    12    1
    23    12    13    2
    24    12    14   am
    25    14    15    1
    26    15    16    1
    27    16    17    1
    28    17    18    1
    29    18    19    1
    30    19    20    1
    31    27    22   ar
    32    14     5    1
    33    20    15    1
    34    11     6   ar
    35     3     4    1
@<TRIPOS>MOLECULE
*****
 32 35 0 0 0
SMALL
GASTEIGER

@<TRIPOS>ATOM
      1 O         142.1877  140.7799  164.3965 O.2     1  UNL1       -0.2729
      2 C         141.4583  141.6196  165.4028 C.2     1  UNL1        0.2451
      3 N         141.5781  143.1143  165.3602 N.am    1  UNL1       -0.2988
      4 H         141.0994  143.6655  166.0207 H       1  UNL1        0.1498
      5 C         140.6092  140.9648  166.4518 C.3     1  UNL1        0.1751
      6 C         140.7434  141.1466  167.9347 C.ar    1  UNL1        0.0089
      7 C         141.6856  141.9678  168.7640 C.ar    1  UNL1       -0.0021
      8 C         141.5784  141.9499  170.2600 C.ar    1  UNL1       -0.0003
      9 C         140.5290  141.1107  170.9267 C.ar    1  UNL1        0.0001
     10 C         139.5868  140.2895  170.0974 C.ar    1  UNL1        0.0043
     11 C         139.6940  140.3074  168.6014 C.ar    1  UNL1        0.0516
     12 C         138.9113  139.6070  167.5305 C.2     1  UNL1        0.2493
     13 O         137.7643  138.6655  167.7498 O.2     1  UNL1       -0.2699
     14 N         139.4769  140.0132  166.2020 N.am    1  UNL1       -0.2676
     15 C         138.9948  139.5494  164.8594 C.3     1  UNL1        0.0813
     16 C         138.2392  140.4897  163.9679 C.3     1  UNL1        0.0520
     17 C         137.7572  140.0259  162.6254 C.3     1  UNL1        0.1439
     18 O         138.0307  138.6218  162.1743 O.3     1  UNL1       -0.3537
     19 C         138.7863  137.6815  163.0658 C.3     1  UNL1        0.1439
     20 C         139.2684  138.1453  164.4083 C.3     1  UNL1        0.0520
     21 C         142.4272  143.7691  164.3113 C.3     1  UNL1        0.1164
     22 C         141.7998  144.2719  163.0450 C.ar    1  UNL1       -0.0024
     23 C         142.3349  143.8290  161.7156 C.ar    1  UNL1        0.0005
     24 C         141.7075  144.3318  160.4493 C.ar    1  UNL1        0.0369
     25 C         140.5450  145.2777  160.5124 C.ar    1  UNL1        0.1468
     26 C         140.0099  145.7206  161.8418 C.ar    1  UNL1        0.0369
     27 C         140.6373  145.2177  163.1082 C.ar    1  UNL1        0.0005
     28 O         139.9177  145.7805  159.2461 O.3     1  UNL1       -0.4045
     29 C         140.2864  145.1631  157.9297 C.3     1  UNL1        0.5753
     30 F         140.6552  144.5456  156.6134 F       1  UNL1       -0.1328
     31 F         139.3176  144.0461  158.1822 F       1  UNL1       -0.1328
     32 F         141.2553  146.2800  157.6773 F       1  UNL1       -0.1328
@<TRIPOS>BOND
     1     1     2    2
     2     2     3   am
     3     3    21    1
     4    21    22    1
     5    22    23   ar
     6    23    24   ar
     7    24    25   ar
     8    25    28    1
     9    28    29    1
    10    29    30    1
    11    29    31    1
    12    29    32    1
    13    25    26   ar
    14    26    27   ar
    15     2     5    1
    16     5     6    1
    17     6     7   ar
    18     7     8   ar
    19     8     9   ar
    20     9    10   ar
    21    10    11   ar
    22    11    12    1
    23    12    13    2
    24    12    14   am
    25    14    15    1
    26    15    16    1
    27    16    17    1
    28    17    18    1
    29    18    19    1
    30    19    20    1
    31    27    22   ar
    32    14     5    1
    33    20    15    1
    34    11     6   ar
    35     3     4    1
@<TRIPOS>MOLECULE
*****
 32 35 0 0 0
SMALL
GASTEIGER

@<TRIPOS>ATOM
      1 O         140.1044  140.9193  161.6952 O.2     1  UNL1       -0.2729
      2 C         139.3772  142.1964  161.3952 C.2     1  UNL1        0.2451
      3 N         138.1920  142.5968  162.2230 N.am    1  UNL1       -0.2988
      4 H         137.7146  143.4350  162.0261 H       1  UNL1        0.1498
      5 C         139.8350  143.0732  160.2675 C.3     1  UNL1        0.1751
      6 C         139.2248  143.1397  158.8988 C.ar    1  UNL1        0.0089
      7 C         138.0666  142.4149  158.2800 C.ar    1  UNL1       -0.0021
      8 C         137.6796  142.6953  156.8582 C.ar    1  UNL1       -0.0003
      9 C         138.4508  143.7005  156.0552 C.ar    1  UNL1        0.0001
     10 C         139.6090  144.4254  156.6741 C.ar    1  UNL1        0.0043
     11 C         139.9960  144.1450  158.0959 C.ar    1  UNL1        0.0516
     12 C         141.0828  144.6997  158.9684 C.2     1  UNL1        0.2493
     13 O         142.0920  145.7350  158.5688 O.2     1  UNL1       -0.2699
     14 N         140.9833  144.0372  160.3105 N.am    1  UNL1       -0.2676
     15 C         141.8755  144.2939  161.4887 C.3     1  UNL1        0.0813
     16 C         143.2751  143.7546  161.5012 C.3     1  UNL1        0.0520
     17 C         144.1673  144.0112  162.6794 C.3     1  UNL1        0.1439
     18 O         143.6598  144.8071  163.8452 O.3     1  UNL1       -0.3537
     19 C         142.2602  145.3463  163.8327 C.3     1  UNL1        0.1439
     20 C         141.3680  145.0897  162.6545 C.3     1  UNL1        0.0520
     21 C         137.7341  141.7200  163.3507 C.3     1  UNL1        0.1164
     22 C         138.5318  141.6521  164.6192 C.ar    1  UNL1       -0.0024
     23 C         139.2938  142.8547  165.0913 C.ar    1  UNL1        0.0005
     24 C         140.0914  142.7867  166.3599 C.ar    1  UNL1        0.0369
     25 C         140.1271  141.5161  167.1563 C.ar    1  UNL1        0.1468
     26 C         139.3650  140.3134  166.6841 C.ar    1  UNL1        0.0369
     27 C         138.5674  140.3814  165.4155 C.ar    1  UNL1        0.0005
     28 O         140.9247  141.4481  168.4248 O.3     1  UNL1       -0.4045
     29 C         141.1907  142.6973  169.2113 C.3     1  UNL1        0.5753
     30 F         141.4568  143.9466  169.9978 F       1  UNL1       -0.1328
     31 F         139.7891  142.6603  169.7443 F       1  UNL1       -0.1328
     32 F         142.5924  142.7344  168.6783 F       1  UNL1       -0.1328
@<TRIPOS>BOND
     1     1     2    2
     2     2     3   am
     3     3    21    1
     4    21    22    1
     5    22    23   ar
     6    23    24   ar
     7    24    25   ar
     8    25    28    1
     9    28    29    1
    10    29    30    1
    11    29    31    1
    12    29    32    1
    13    25    26   ar
    14    26    27   ar
    15     2     5    1
    16     5     6    1
    17     6     7   ar
    18     7     8   ar
    19     8     9   ar
    20     9    10   ar
    21    10    11   ar
    22    11    12    1
    23    12    13    2
    24    12    14   am
    25    14    15    1
    26    15    16    1
    27    16    17    1
    28    17    18    1
    29    18    19    1
    30    19    20    1
    31    27    22   ar
    32    14     5    1
    33    20    15    1
    34    11     6   ar
    35     3     4    1
@<TRIPOS>MOLECULE
*****
 32 35 0 0 0
SMALL
GASTEIGER

@<TRIPOS>ATOM
      1 O         138.6201  141.1403  165.0904 O.2     1  UNL1       -0.2729
      2 C         139.7926  141.9357  165.5828 C.2     1  UNL1        0.2451
      3 N         139.9861  143.3500  165.1218 N.am    1  UNL1       -0.2988
      4 H         140.7557  143.8721  165.4450 H       1  UNL1        0.1498
      5 C         140.7716  141.3169  166.5360 C.3     1  UNL1        0.1751
      6 C         141.1214  141.8343  167.8998 C.ar    1  UNL1        0.0089
      7 C         140.6452  143.0282  168.6730 C.ar    1  UNL1       -0.0021
      8 C         141.1862  143.2971  170.0460 C.ar    1  UNL1       -0.0003
      9 C         142.2034  142.3721  170.6457 C.ar    1  UNL1        0.0001
     10 C         142.6796  141.1782  169.8725 C.ar    1  UNL1        0.0043
     11 C         142.1387  140.9094  168.4996 C.ar    1  UNL1        0.0516
     12 C         142.4174  139.8203  167.5064 C.2     1  UNL1        0.2493
     13 O         143.3733  138.6797  167.6939 O.2     1  UNL1       -0.2699
     14 N         141.5725  140.0722  166.2929 N.am    1  UNL1       -0.2676
     15 C         141.5351  139.2277  165.0538 C.3     1  UNL1        0.0813
     16 C         140.4738  138.1802  164.8919 C.3     1  UNL1        0.0520
     17 C         140.4364  137.3356  163.6528 C.3     1  UNL1        0.1439
     18 O         141.4604  137.5386  162.5756 O.3     1  UNL1       -0.3537
     19 C         142.5217  138.5861  162.7376 C.3     1  UNL1        0.1439
     20 C         142.5591  139.4307  163.9766 C.3     1  UNL1        0.0520
     21 C         139.0071  143.9688  164.1686 C.3     1  UNL1        0.1164
     22 C         139.3629  144.1161  162.7189 C.ar    1  UNL1       -0.0024
     23 C         139.0783  142.9988  161.7594 C.ar    1  UNL1        0.0005
     24 C         139.4341  143.1463  160.3097 C.ar    1  UNL1        0.0369
     25 C         140.0745  144.4110  159.8194 C.ar    1  UNL1        0.1468
     26 C         140.3591  145.5283  160.7789 C.ar    1  UNL1        0.0369
     27 C         140.0033  145.3809  162.2287 C.ar    1  UNL1        0.0005
     28 O         140.4302  144.5584  158.3697 O.3     1  UNL1       -0.4045
     29 C         141.5084  145.5155  157.9555 C.3     1  UNL1        0.5753
     30 F         142.5865  146.4726  157.5413 F       1  UNL1       -0.1328
     31 F         140.4656  146.4972  157.5097 F       1  UNL1       -0.1328
     32 F         142.5512  144.5337  158.4013 F       1  UNL1       -0.1328
@<TRIPOS>BOND
     1     1     2    2
     2     2     3   am
     3     3    21    1
     4    21    22    1
     5    22    23   ar
     6    23    24   ar
     7    24    25   ar
     8    25    28    1
     9    28    29    1
    10    29    30    1
    11    29    31    1
    12    29    32    1
    13    25    26   ar
    14    26    27   ar
    15     2     5    1
    16     5     6    1
    17     6     7   ar
    18     7     8   ar
    19     8     9   ar
    20     9    10   ar
    21    10    11   ar
    22    11    12    1
    23    12    13    2
    24    12    14   am
    25    14    15    1
    26    15    16    1
    27    16    17    1
    28    17    18    1
    29    18    19    1
    30    19    20    1
    31    27    22   ar
    32    14     5    1
    33    20    15    1
    34    11     6   ar
    35     3     4    1
@<TRIPOS>MOLECULE
*****
 32 35 0 0 0
SMALL
GASTEIGER

@<TRIPOS>ATOM
      1 O         139.6879  141.1590  164.3608 O.2     1  UNL1       -0.2729
      2 C         140.6279  141.7009  165.3964 C.2     1  UNL1        0.2451
      3 N         140.8066  143.1828  165.5449 N.am    1  UNL1       -0.2988
      4 H         141.4236  143.5386  166.2247 H       1  UNL1        0.1498
      5 C         141.3891  140.7610  166.2836 C.3     1  UNL1        0.1751
      6 C         141.1881  140.5843  167.7595 C.ar    1  UNL1        0.0089
      7 C         140.2458  141.2340  168.7290 C.ar    1  UNL1       -0.0021
      8 C         140.2752  140.8462  170.1777 C.ar    1  UNL1       -0.0003
      9 C         141.2469  139.8089  170.6569 C.ar    1  UNL1        0.0001
     10 C         142.1892  139.1592  169.6874 C.ar    1  UNL1        0.0043
     11 C         142.1598  139.5469  168.2387 C.ar    1  UNL1        0.0516
     12 C         142.9613  139.0825  167.0590 C.2     1  UNL1        0.2493
     13 O         144.0483  138.0491  167.0833 O.2     1  UNL1       -0.2699
     14 N         142.4850  139.8328  165.8506 N.am    1  UNL1       -0.2676
     15 C         143.0121  139.6815  164.4544 C.3     1  UNL1        0.0813
     16 C         142.6048  138.5016  163.6227 C.3     1  UNL1        0.0520
     17 C         143.1318  138.3503  162.2265 C.3     1  UNL1        0.1439
     18 O         144.0663  139.3790  161.6621 O.3     1  UNL1       -0.3537
     19 C         144.4736  140.5589  162.4938 C.3     1  UNL1        0.1439
     20 C         143.9465  140.7102  163.8900 C.3     1  UNL1        0.0520
     21 C         140.0453  144.1227  164.6578 C.3     1  UNL1        0.1164
     22 C         140.5240  144.3892  163.2614 C.ar    1  UNL1       -0.0024
     23 C         141.8023  143.7723  162.7762 C.ar    1  UNL1        0.0005
     24 C         142.2809  144.0389  161.3798 C.ar    1  UNL1        0.0369
     25 C         141.4814  144.9224  160.4687 C.ar    1  UNL1        0.1468
     26 C         140.2032  145.5394  160.9539 C.ar    1  UNL1        0.0369
     27 C         139.7245  145.2728  162.3504 C.ar    1  UNL1        0.0005
     28 O         141.9601  145.1890  159.0724 O.3     1  UNL1       -0.4045
     29 C         141.0567  144.9199  157.9055 C.3     1  UNL1        0.5753
     30 F         140.1533  144.6508  156.7387 F       1  UNL1       -0.1328
     31 F         140.8632  143.5103  158.3805 F       1  UNL1       -0.1328
     32 F         141.2503  146.3295  157.4306 F       1  UNL1       -0.1328
@<TRIPOS>BOND
     1     1     2    2
     2     2     3   am
     3     3    21    1
     4    21    22    1
     5    22    23   ar
     6    23    24   ar
     7    24    25   ar
     8    25    28    1
     9    28    29    1
    10    29    30    1
    11    29    31    1
    12    29    32    1
    13    25    26   ar
    14    26    27   ar
    15     2     5    1
    16     5     6    1
    17     6     7   ar
    18     7     8   ar
    19     8     9   ar
    20     9    10   ar
    21    10    11   ar
    22    11    12    1
    23    12    13    2
    24    12    14   am
    25    14    15    1
    26    15    16    1
    27    16    17    1
    28    17    18    1
    29    18    19    1
    30    19    20    1
    31    27    22   ar
    32    14     5    1
    33    20    15    1
    34    11     6   ar
    35     3     4    1
@<TRIPOS>MOLECULE
*****
 32 35 0 0 0
SMALL
GASTEIGER

@<TRIPOS>ATOM
      1 O         142.0972  142.7315  165.5028 O.2     1  UNL1       -0.2729
      2 C         142.1605  141.2583  165.7774 C.2     1  UNL1        0.2451
      3 N         143.3651  140.4685  165.3585 N.am    1  UNL1       -0.2988
      4 H         143.4067  139.5015  165.5387 H       1  UNL1        0.1498
      5 C         141.0194  140.5748  166.4707 C.3     1  UNL1        0.1751
      6 C         140.1720  139.4763  165.9005 C.ar    1  UNL1        0.0089
      7 C         140.1957  138.7760  164.5742 C.ar    1  UNL1       -0.0021
      8 C         139.2015  137.6918  164.2808 C.ar    1  UNL1       -0.0003
      9 C         138.1838  137.3078  165.3136 C.ar    1  UNL1        0.0001
     10 C         138.1601  138.0081  166.6399 C.ar    1  UNL1        0.0043
     11 C         139.1543  139.0923  166.9333 C.ar    1  UNL1        0.0516
     12 C         139.3727  139.9536  168.1418 C.2     1  UNL1        0.2493
     13 O         138.5779  139.9068  169.4131 O.2     1  UNL1       -0.2699
     14 N         140.5254  140.8698  167.8559 N.am    1  UNL1       -0.2676
     15 C         141.0857  141.9001  168.7911 C.3     1  UNL1        0.0813
     16 C         140.2686  143.1032  169.1582 C.3     1  UNL1        0.0520
     17 C         140.8289  144.1335  170.0934 C.3     1  UNL1        0.1439
     18 O         142.2064  143.9607  170.6614 O.3     1  UNL1       -0.3537
     19 C         143.0235  142.7576  170.2943 C.3     1  UNL1        0.1439
     20 C         142.4632  141.7273  169.3591 C.3     1  UNL1        0.0520
     21 C         144.5062  141.1520  164.6652 C.3     1  UNL1        0.1164
     22 C         144.3905  141.5206  163.2158 C.ar    1  UNL1       -0.0024
     23 C         144.4485  142.9610  162.8013 C.ar    1  UNL1        0.0005
     24 C         144.3328  143.3295  161.3519 C.ar    1  UNL1        0.0369
     25 C         144.1592  142.2577  160.3169 C.ar    1  UNL1        0.1468
     26 C         144.1012  140.8172  160.7315 C.ar    1  UNL1        0.0369
     27 C         144.2169  140.4487  162.1810 C.ar    1  UNL1        0.0005
     28 O         144.0435  142.6263  158.8676 O.3     1  UNL1       -0.4045
     29 C         145.0101  142.0598  157.8701 C.3     1  UNL1        0.5753
     30 F         145.9767  141.4934  156.8727 F       1  UNL1       -0.1328
     31 F         143.9101  141.2323  157.2741 F       1  UNL1       -0.1328
     32 F         146.1100  142.8874  158.4661 F       1  UNL1       -0.1328
@<TRIPOS>BOND
     1     1     2    2
     2     2     3   am
     3     3    21    1
     4    21    22    1
     5    22    23   ar
     6    23    24   ar
     7    24    25   ar
     8    25    28    1
     9    28    29    1
    10    29    30    1
    11    29    31    1
    12    29    32    1
    13    25    26   ar
    14    26    27   ar
    15     2     5    1
    16     5     6    1
    17     6     7   ar
    18     7     8   ar
    19     8     9   ar
    20     9    10   ar
    21    10    11   ar
    22    11    12    1
    23    12    13    2
    24    12    14   am
    25    14    15    1
    26    15    16    1
    27    16    17    1
    28    17    18    1
    29    18    19    1
    30    19    20    1
    31    27    22   ar
    32    14     5    1
    33    20    15    1
    34    11     6   ar
    35     3     4    1
@<TRIPOS>MOLECULE
*****
 32 35 0 0 0
SMALL
GASTEIGER

@<TRIPOS>ATOM
      1 O         140.1044  144.6850  162.4712 O.2     1  UNL1       -0.2729
      2 C         140.5139  143.3397  161.9493 C.2     1  UNL1        0.2451
      3 N         141.6954  142.6324  162.5442 N.am    1  UNL1       -0.2988
      4 H         141.9642  141.7494  162.2017 H       1  UNL1        0.1498
      5 C         139.7420  142.7017  160.8326 C.3     1  UNL1        0.1751
      6 C         139.6182  143.2278  159.4333 C.ar    1  UNL1        0.0089
      7 C         140.1774  144.4500  158.7675 C.ar    1  UNL1       -0.0021
      8 C         139.8766  144.7212  157.3232 C.ar    1  UNL1       -0.0003
      9 C         139.0165  143.7702  156.5448 C.ar    1  UNL1        0.0001
     10 C         138.4573  142.5480  157.2107 C.ar    1  UNL1        0.0043
     11 C         138.7581  142.2768  158.6550 C.ar    1  UNL1        0.0516
     12 C         138.3504  141.1629  159.5731 C.2     1  UNL1        0.2493
     13 O         137.4863  139.9920  159.2093 O.2     1  UNL1       -0.2699
     14 N         138.9585  141.4255  160.9190 N.am    1  UNL1       -0.2676
     15 C         138.8093  140.5633  162.1373 C.3     1  UNL1        0.0813
     16 C         138.2639  141.1469  163.4069 C.3     1  UNL1        0.0520
     17 C         138.1147  140.2847  164.6252 C.3     1  UNL1        0.1439
     18 O         138.5108  138.8388  164.5740 O.3     1  UNL1       -0.3537
     19 C         139.0562  138.2553  163.3043 C.3     1  UNL1        0.1439
     20 C         139.2054  139.1175  162.0860 C.3     1  UNL1        0.0520
     21 C         142.4672  143.2704  163.6610 C.3     1  UNL1        0.1164
     22 C         142.1415  142.9335  165.0859 C.ar    1  UNL1       -0.0024
     23 C         140.7255  143.0223  165.5728 C.ar    1  UNL1        0.0005
     24 C         140.3999  142.6854  166.9977 C.ar    1  UNL1        0.0369
     25 C         141.4902  142.2597  167.9358 C.ar    1  UNL1        0.1468
     26 C         142.9062  142.1709  167.4489 C.ar    1  UNL1        0.0369
     27 C         143.2319  142.5078  166.0239 C.ar    1  UNL1        0.0005
     28 O         141.1645  141.9228  169.3607 O.3     1  UNL1       -0.4045
     29 C         140.2530  142.8130  170.1524 C.3     1  UNL1        0.5753
     30 F         139.3416  143.7031  170.9441 F       1  UNL1       -0.1328
     31 F         139.2658  141.6906  170.2778 F       1  UNL1       -0.1328
     32 F         141.2403  143.9353  170.0270 F       1  UNL1       -0.1328
@<TRIPOS>BOND
     1     1     2    2
     2     2     3   am
     3     3    21    1
     4    21    22    1
     5    22    23   ar
     6    23    24   ar
     7    24    25   ar
     8    25    28    1
     9    28    29    1
    10    29    30    1
    11    29    31    1
    12    29    32    1
    13    25    26   ar
    14    26    27   ar
    15     2     5    1
    16     5     6    1
    17     6     7   ar
    18     7     8   ar
    19     8     9   ar
    20     9    10   ar
    21    10    11   ar
    22    11    12    1
    23    12    13    2
    24    12    14   am
    25    14    15    1
    26    15    16    1
    27    16    17    1
    28    17    18    1
    29    18    19    1
    30    19    20    1
    31    27    22   ar
    32    14     5    1
    33    20    15    1
    34    11     6   ar
    35     3     4    1
@<TRIPOS>MOLECULE
*****
 32 35 0 0 0
SMALL
GASTEIGER

@<TRIPOS>ATOM
      1 O         143.6255  139.4191  158.8529 O.2     1  UNL1       -0.2729
      2 C         142.8213  138.1651  159.0274 C.2     1  UNL1        0.2451
      3 N         142.9216  137.3811  160.3024 N.am    1  UNL1       -0.2988
      4 H         142.3938  136.5580  160.4169 H       1  UNL1        0.1498
      5 C         141.9166  137.6950  157.9271 C.3     1  UNL1        0.1751
      6 C         142.3025  136.7905  156.7944 C.ar    1  UNL1        0.0089
      7 C         143.5999  136.1288  156.4357 C.ar    1  UNL1       -0.0021
      8 C         143.6866  135.2599  155.2161 C.ar    1  UNL1       -0.0003
      9 C         142.4758  135.0527  154.3552 C.ar    1  UNL1        0.0001
     10 C         141.1783  135.7144  154.7140 C.ar    1  UNL1        0.0043
     11 C         141.0917  136.5833  155.9336 C.ar    1  UNL1        0.0516
     12 C         139.9576  137.3598  156.5343 C.2     1  UNL1        0.2493
     13 O         138.5591  137.4358  155.9971 O.2     1  UNL1       -0.2699
     14 N         140.4674  138.0469  157.7663 N.am    1  UNL1       -0.2676
     15 C         139.6683  138.9306  158.6776 C.3     1  UNL1        0.0813
     16 C         139.1959  140.2711  158.1980 C.3     1  UNL1        0.0520
     17 C         138.3968  141.1548  159.1093 C.3     1  UNL1        0.1439
     18 O         138.0701  140.6981  160.5002 O.3     1  UNL1       -0.3537
     19 C         138.5424  139.3577  160.9798 C.3     1  UNL1        0.1439
     20 C         139.3415  138.4739  160.0685 C.3     1  UNL1        0.0520
     21 C         143.8263  137.8512  161.4027 C.3     1  UNL1        0.1164
     22 C         143.2486  138.2606  162.7250 C.ar    1  UNL1       -0.0024
     23 C         141.8970  137.7600  163.1403 C.ar    1  UNL1        0.0005
     24 C         141.3194  138.1694  164.4627 C.ar    1  UNL1        0.0369
     25 C         142.0934  139.0793  165.3699 C.ar    1  UNL1        0.1468
     26 C         143.4450  139.5799  164.9546 C.ar    1  UNL1        0.0369
     27 C         144.0226  139.1705  163.6321 C.ar    1  UNL1        0.0005
     28 O         141.5157  139.4887  166.6923 O.3     1  UNL1       -0.4045
     29 C         142.4021  140.0829  167.7464 C.3     1  UNL1        0.5753
     30 F         143.2885  140.6771  168.8005 F       1  UNL1       -0.1328
     31 F         141.9395  141.4567  167.3609 F       1  UNL1       -0.1328
     32 F         142.8647  138.7091  168.1318 F       1  UNL1       -0.1328
@<TRIPOS>BOND
     1     1     2    2
     2     2     3   am
     3     3    21    1
     4    21    22    1
     5    22    23   ar
     6    23    24   ar
     7    24    25   ar
     8    25    28    1
     9    28    29    1
    10    29    30    1
    11    29    31    1
    12    29    32    1
    13    25    26   ar
    14    26    27   ar
    15     2     5    1
    16     5     6    1
    17     6     7   ar
    18     7     8   ar
    19     8     9   ar
    20     9    10   ar
    21    10    11   ar
    22    11    12    1
    23    12    13    2
    24    12    14   am
    25    14    15    1
    26    15    16    1
    27    16    17    1
    28    17    18    1
    29    18    19    1
    30    19    20    1
    31    27    22   ar
    32    14     5    1
    33    20    15    1
    34    11     6   ar
    35     3     4    1
@<TRIPOS>MOLECULE
*****
 32 35 0 0 0
SMALL
GASTEIGER

@<TRIPOS>ATOM
      1 O         142.6965  140.9990  162.1466 O.2     1  UNL1       -0.2729
      2 C         141.9236  139.7215  162.0038 C.2     1  UNL1        0.2451
      3 N         142.0701  138.6375  163.0303 N.am    1  UNL1       -0.2988
      4 H         141.5629  137.7990  162.9366 H       1  UNL1        0.1498
      5 C         141.0042  139.5278  160.8345 C.3     1  UNL1        0.1751
      6 C         141.3175  138.7604  159.5843 C.ar    1  UNL1        0.0089
      7 C         142.5408  138.0106  159.1468 C.ar    1  UNL1       -0.0021
      8 C         142.5636  137.3262  157.8123 C.ar    1  UNL1       -0.0003
      9 C         141.3632  137.3915  156.9153 C.ar    1  UNL1        0.0001
     10 C         140.1399  138.1413  157.3528 C.ar    1  UNL1        0.0043
     11 C         140.1171  138.8258  158.6873 C.ar    1  UNL1        0.0516
     12 C         139.0619  139.6335  159.3831 C.2     1  UNL1        0.2493
     13 O         137.6980  139.9516  158.8461 O.2     1  UNL1       -0.2699
     14 N         139.6102  140.0674  160.7102 N.am    1  UNL1       -0.2676
     15 C         138.8908  140.8955  161.7332 C.3     1  UNL1        0.0813
     16 C         138.5641  142.3302  161.4419 C.3     1  UNL1        0.0520
     17 C         137.8446  143.1582  162.4650 C.3     1  UNL1        0.1439
     18 O         137.4519  142.5517  163.7794 O.3     1  UNL1       -0.3537
     19 C         137.7786  141.1170  164.0708 C.3     1  UNL1        0.1439
     20 C         138.4981  140.2889  163.0477 C.3     1  UNL1        0.0520
     21 C         142.9895  138.8312  164.1996 C.3     1  UNL1        0.1164
     22 C         142.4297  139.2066  165.5396 C.ar    1  UNL1       -0.0024
     23 C         141.1173  139.9274  165.6290 C.ar    1  UNL1        0.0005
     24 C         140.5576  140.3028  166.9691 C.ar    1  UNL1        0.0369
     25 C         141.3102  139.9573  168.2198 C.ar    1  UNL1        0.1468
     26 C         142.6225  139.2365  168.1304 C.ar    1  UNL1        0.0369
     27 C         143.1823  138.8611  166.7903 C.ar    1  UNL1        0.0005
     28 O         140.7503  140.3327  169.5598 O.3     1  UNL1       -0.4045
     29 C         140.1921  141.7072  169.7812 C.3     1  UNL1        0.5753
     30 F         139.6338  143.0817  170.0025 F       1  UNL1       -0.1328
     31 F         138.8336  141.1172  170.0189 F       1  UNL1       -0.1328
     32 F         141.5505  142.2972  169.5434 F       1  UNL1       -0.1328
@<TRIPOS>BOND
     1     1     2    2
     2     2     3   am
     3     3    21    1
     4    21    22    1
     5    22    23   ar
     6    23    24   ar
     7    24    25   ar
     8    25    28    1
     9    28    29    1
    10    29    30    1
    11    29    31    1
    12    29    32    1
    13    25    26   ar
    14    26    27   ar
    15     2     5    1
    16     5     6    1
    17     6     7   ar
    18     7     8   ar
    19     8     9   ar
    20     9    10   ar
    21    10    11   ar
    22    11    12    1
    23    12    13    2
    24    12    14   am
    25    14    15    1
    26    15    16    1
    27    16    17    1
    28    17    18    1
    29    18    19    1
    30    19    20    1
    31    27    22   ar
    32    14     5    1
    33    20    15    1
    34    11     6   ar
    35     3     4    1
