@<TRIPOS>MOLECULE
*****
 34 38 0 0 0
SMALL
GASTEIGER

@<TRIPOS>ATOM
      1 N         138.0809  139.8269  161.3049 N.3     1  UNL1       -0.2710
      2 C         137.7085  141.0258  162.1259 C.3     1  UNL1        0.0725
      3 C         137.8917  141.0018  163.6144 C.3     1  UNL1        0.0218
      4 C         138.4474  139.7789  164.2820 C.3     1  UNL1        0.0267
      5 C         138.8199  138.5800  163.4611 C.3     1  UNL1        0.0218
      6 C         138.6366  138.6040  161.9725 C.3     1  UNL1        0.0725
      7 C         138.6307  139.7549  165.7706 C.2     1  UNL1       -0.0022
      8 C         137.9293  138.8403  166.7306 C.2     1  UNL1        0.0942
      9 N         138.4126  139.1613  168.1139 N.2     1  UNL1       -0.2482
     10 C         139.4127  140.2743  168.0087 C.2     1  UNL1        0.0630
     11 C         140.2180  141.0012  169.0446 C.3     1  UNL1        0.0760
     12 C         141.1581  142.0949  168.6323 C.2     1  UNL1        0.0551
     13 C         141.2929  142.4618  167.1840 C.2     1  UNL1       -0.0000
     14 C         140.4876  141.7349  166.1482 C.2     1  UNL1        0.0005
     15 C         139.5474  140.6412  166.5605 C.2     1  UNL1        0.0114
     16 C         141.9635  142.8218  169.6681 C.3     1  UNL1        0.4153
     17 F         142.7689  143.5487  170.7041 F       1  UNL1       -0.1662
     18 F         140.9420  143.9199  169.6917 F       1  UNL1       -0.1662
     19 F         142.9850  141.7237  169.6446 F       1  UNL1       -0.1662
     20 C         137.8977  139.8509  159.8163 C.3     1  UNL1        0.0970
     21 C         138.9932  140.3720  158.9341 C.3     1  UNL1        0.1264
     22 C         142.7625  140.7474  161.3635 C.ar    1  UNL1        0.1593
     23 C         143.9470  139.8827  161.0484 C.ar    1  UNL1        0.1357
     24 N         143.8751  138.8929  159.9237 N.ar    1  UNL1       -0.2392
     25 C         142.6187  138.7678  159.1139 C.ar    1  UNL1        0.0975
     26 C         142.5468  137.7780  157.9891 C.ar    1  UNL1        0.0255
     27 C         141.2904  137.6529  157.1793 C.ar    1  UNL1        0.0623
     28 C         140.1058  138.5175  157.4943 C.ar    1  UNL1        0.2611
     29 O         138.8494  138.3924  156.6845 O.2     1  UNL1       -0.2670
     30 N         140.1777  139.5073  158.6191 N.ar    1  UNL1       -0.2926
     31 C         141.4342  139.6324  159.4289 C.ar    1  UNL1        0.0832
     32 C         141.5061  140.6222  160.5537 C.ar    1  UNL1        0.0573
     33 C         143.3697  141.3161  163.8247 C.3     1  UNL1        0.2525
     34 O         142.8344  141.7371  162.4882 O.3     1  UNL1       -0.4698
@<TRIPOS>BOND
     1    33    34    1
     2    34    22    1
     3    22    23   ar
     4    23    24   ar
     5    24    25   ar
     6    25    26   ar
     7    26    27   ar
     8    27    28   ar
     9    28    29    2
    10    28    30   ar
    11    30    21    1
    12    21    20    1
    13    20     1    1
    14     1     2    1
    15     2     3    1
    16     3     4    1
    17     4     7    1
    18     7     8    2
    19     8     9    1
    20     9    10    2
    21    10    11    1
    22    11    12    1
    23    12    16    1
    24    16    17    1
    25    16    18    1
    26    16    19    1
    27    12    13    2
    28    13    14    1
    29    14    15    2
    30     4     5    1
    31     5     6    1
    32    30    31   ar
    33    31    32   ar
    34    32    22   ar
    35    31    25   ar
    36     6     1    1
    37    15     7    1
    38    15    10    1
@<TRIPOS>MOLECULE
*****
 34 38 0 0 0
SMALL
GASTEIGER

@<TRIPOS>ATOM
      1 N         139.1665  138.3874  162.0087 N.3     1  UNL1       -0.2710
      2 C         138.2583  139.4670  162.5181 C.3     1  UNL1        0.0725
      3 C         138.2528  139.8161  163.9769 C.3     1  UNL1        0.0218
      4 C         139.1556  139.0856  164.9263 C.3     1  UNL1        0.0267
      5 C         140.0638  138.0060  164.4168 C.3     1  UNL1        0.0218
      6 C         140.0693  137.6569  162.9581 C.3     1  UNL1        0.0725
      7 C         139.1502  139.4347  166.3851 C.2     1  UNL1       -0.0022
      8 C         138.1633  138.9478  167.4045 C.2     1  UNL1        0.0942
      9 N         138.5338  139.5441  168.7301 N.2     1  UNL1       -0.2482
     10 C         139.7497  140.3994  168.5299 C.2     1  UNL1        0.0630
     11 C         140.5592  141.2311  169.4801 C.3     1  UNL1        0.0760
     12 C         141.7496  141.9952  168.9811 C.2     1  UNL1        0.0551
     13 C         142.1306  141.9275  167.5318 C.2     1  UNL1       -0.0000
     14 C         141.3211  141.0958  166.5816 C.2     1  UNL1        0.0005
     15 C         140.1306  140.3318  167.0807 C.2     1  UNL1        0.0114
     16 C         142.5592  142.8269  169.9313 C.3     1  UNL1        0.4153
     17 F         143.3688  143.6586  170.8816 F       1  UNL1       -0.1662
     18 F         143.6493  141.7969  169.9041 F       1  UNL1       -0.1662
     19 F         141.4691  143.8569  169.9585 F       1  UNL1       -0.1662
     20 C         139.1720  138.0383  160.5499 C.3     1  UNL1        0.0970
     21 C         139.9721  138.8619  159.5846 C.3     1  UNL1        0.1264
     22 C         143.2647  141.1991  161.5711 C.ar    1  UNL1        0.1593
     23 C         143.1944  142.6964  161.6249 C.ar    1  UNL1        0.1357
     24 N         142.0265  143.4147  161.0165 N.ar    1  UNL1       -0.2392
     25 C         140.9290  142.6357  160.3543 C.ar    1  UNL1        0.0975
     26 C         139.7611  143.3540  159.7459 C.ar    1  UNL1        0.0255
     27 C         138.6636  142.5750  159.0838 C.ar    1  UNL1        0.0623
     28 C         138.7339  141.0775  159.0300 C.ar    1  UNL1        0.2611
     29 O         137.6364  140.2985  158.3678 O.2     1  UNL1       -0.2670
     30 N         139.9017  140.3592  159.6384 N.ar    1  UNL1       -0.2926
     31 C         140.9993  141.1383  160.3006 C.ar    1  UNL1        0.0832
     32 C         142.1671  140.4200  160.9090 C.ar    1  UNL1        0.0573
     33 C         144.2020  139.3133  163.0926 C.3     1  UNL1        0.2525
     34 O         144.4325  140.4807  162.1795 O.3     1  UNL1       -0.4698
@<TRIPOS>BOND
     1    33    34    1
     2    34    22    1
     3    22    23   ar
     4    23    24   ar
     5    24    25   ar
     6    25    26   ar
     7    26    27   ar
     8    27    28   ar
     9    28    29    2
    10    28    30   ar
    11    30    21    1
    12    21    20    1
    13    20     1    1
    14     1     2    1
    15     2     3    1
    16     3     4    1
    17     4     7    1
    18     7     8    2
    19     8     9    1
    20     9    10    2
    21    10    11    1
    22    11    12    1
    23    12    16    1
    24    16    17    1
    25    16    18    1
    26    16    19    1
    27    12    13    2
    28    13    14    1
    29    14    15    2
    30     4     5    1
    31     5     6    1
    32    30    31   ar
    33    31    32   ar
    34    32    22   ar
    35    31    25   ar
    36     6     1    1
    37    15     7    1
    38    15    10    1
@<TRIPOS>MOLECULE
*****
 34 38 0 0 0
SMALL
GASTEIGER

@<TRIPOS>ATOM
      1 N         139.2437  138.5331  161.9831 N.3     1  UNL1       -0.2710
      2 C         140.1440  137.7833  162.9197 C.3     1  UNL1        0.0725
      3 C         140.1382  138.1058  164.3846 C.3     1  UNL1        0.0218
      4 C         139.2321  139.1781  164.9129 C.3     1  UNL1        0.0267
      5 C         138.3318  139.9279  163.9763 C.3     1  UNL1        0.0218
      6 C         138.3376  139.6054  162.5114 C.3     1  UNL1        0.0725
      7 C         139.2263  139.5006  166.3778 C.2     1  UNL1       -0.0022
      8 C         138.2483  138.9831  167.3906 C.2     1  UNL1        0.0942
      9 N         138.6149  139.5599  168.7259 N.2     1  UNL1       -0.2482
     10 C         139.8196  140.4338  168.5383 C.2     1  UNL1        0.0630
     11 C         140.6213  141.2582  169.5014 C.3     1  UNL1        0.0760
     12 C         141.8008  142.0459  169.0133 C.2     1  UNL1        0.0551
     13 C         142.1786  142.0093  167.5621 C.2     1  UNL1       -0.0000
     14 C         141.3769  141.1849  166.5990 C.2     1  UNL1        0.0005
     15 C         140.1974  140.3971  167.0871 C.2     1  UNL1        0.0114
     16 C         142.6025  142.8704  169.9764 C.3     1  UNL1        0.4153
     17 F         143.4042  143.6948  170.9396 F       1  UNL1       -0.1662
     18 F         143.7118  141.8625  169.9157 F       1  UNL1       -0.1662
     19 F         141.4932  143.8782  170.0372 F       1  UNL1       -0.1662
     20 C         139.2495  138.2106  160.5181 C.3     1  UNL1        0.0970
     21 C         139.5962  139.2731  159.5177 C.3     1  UNL1        0.1264
     22 C         139.8946  143.4768  161.0956 C.ar    1  UNL1        0.1593
     23 C         141.2279  144.1609  161.1597 C.ar    1  UNL1        0.1357
     24 N         142.4618  143.4438  160.6978 N.ar    1  UNL1       -0.2392
     25 C         142.3624  142.0426  160.1719 C.ar    1  UNL1        0.0975
     26 C         143.5963  141.3255  159.7100 C.ar    1  UNL1        0.0255
     27 C         143.4968  139.9243  159.1841 C.ar    1  UNL1        0.0623
     28 C         142.1635  139.2401  159.1199 C.ar    1  UNL1        0.2611
     29 O         142.0640  137.8389  158.5940 O.2     1  UNL1       -0.2670
     30 N         140.9296  139.9572  159.5818 N.ar    1  UNL1       -0.2926
     31 C         141.0291  141.3585  160.1077 C.ar    1  UNL1        0.0832
     32 C         139.7952  142.0756  160.5696 C.ar    1  UNL1        0.0573
     33 C         137.8677  143.6552  162.7110 C.3     1  UNL1        0.2525
     34 O         138.6607  144.1939  161.5574 O.3     1  UNL1       -0.4698
@<TRIPOS>BOND
     1    33    34    1
     2    34    22    1
     3    22    23   ar
     4    23    24   ar
     5    24    25   ar
     6    25    26   ar
     7    26    27   ar
     8    27    28   ar
     9    28    29    2
    10    28    30   ar
    11    30    21    1
    12    21    20    1
    13    20     1    1
    14     1     2    1
    15     2     3    1
    16     3     4    1
    17     4     7    1
    18     7     8    2
    19     8     9    1
    20     9    10    2
    21    10    11    1
    22    11    12    1
    23    12    16    1
    24    16    17    1
    25    16    18    1
    26    16    19    1
    27    12    13    2
    28    13    14    1
    29    14    15    2
    30     4     5    1
    31     5     6    1
    32    30    31   ar
    33    31    32   ar
    34    32    22   ar
    35    31    25   ar
    36     6     1    1
    37    15     7    1
    38    15    10    1
@<TRIPOS>MOLECULE
*****
 34 38 0 0 0
SMALL
GASTEIGER

@<TRIPOS>ATOM
      1 N         142.4785  138.1578  161.3095 N.3     1  UNL1       -0.2710
      2 C         141.3279  137.7648  162.1880 C.3     1  UNL1        0.0725
      3 C         141.4143  137.9662  163.6719 C.3     1  UNL1        0.0218
      4 C         142.6513  138.5606  164.2773 C.3     1  UNL1        0.0267
      5 C         143.8019  138.9536  163.3988 C.3     1  UNL1        0.0218
      6 C         143.7155  138.7522  161.9149 C.3     1  UNL1        0.0725
      7 C         142.7378  138.7620  165.7612 C.2     1  UNL1       -0.0022
      8 C         143.6218  138.0009  166.7043 C.2     1  UNL1        0.0942
      9 N         143.3858  138.5283  168.0885 N.2     1  UNL1       -0.2482
     10 C         142.3560  139.6155  168.0009 C.2     1  UNL1        0.0630
     11 C         141.7312  140.4926  169.0451 C.3     1  UNL1        0.0760
     12 C         140.7060  141.5140  168.6510 C.2     1  UNL1        0.0551
     13 C         140.3055  141.6585  167.2126 C.2     1  UNL1       -0.0000
     14 C         140.9303  140.7814  166.1685 C.2     1  UNL1        0.0005
     15 C         141.9555  139.7599  166.5626 C.2     1  UNL1        0.0114
     16 C         140.0812  142.3912  169.6952 C.3     1  UNL1        0.4153
     17 F         139.4564  143.2683  170.7394 F       1  UNL1       -0.1662
     18 F         141.0973  143.4566  169.4081 F       1  UNL1       -0.1662
     19 F         139.0652  141.3258  169.9823 F       1  UNL1       -0.1662
     20 C         142.3920  137.9564  159.8256 C.3     1  UNL1        0.0970
     21 C         141.8654  139.0539  158.9492 C.3     1  UNL1        0.1264
     22 C         140.7188  142.6283  161.4309 C.ar    1  UNL1        0.1593
     23 C         141.4831  143.9118  161.2953 C.ar    1  UNL1        0.1357
     24 N         142.6296  144.0039  160.3325 N.ar    1  UNL1       -0.2392
     25 C         143.0118  142.8124  159.5052 C.ar    1  UNL1        0.0975
     26 C         144.1583  142.9045  158.5424 C.ar    1  UNL1        0.0255
     27 C         144.5405  141.7131  157.7152 C.ar    1  UNL1        0.0623
     28 C         143.7762  140.4295  157.8507 C.ar    1  UNL1        0.2611
     29 O         144.1583  139.2380  157.0235 O.2     1  UNL1       -0.2670
     30 N         142.6297  140.3374  158.8136 N.ar    1  UNL1       -0.2926
     31 C         142.2475  141.5289  159.6408 C.ar    1  UNL1        0.0832
     32 C         141.1010  141.4369  160.6037 C.ar    1  UNL1        0.0573
     33 C         138.2503  143.1542  162.0471 C.3     1  UNL1        0.2525
     34 O         139.5723  142.5363  162.3938 O.3     1  UNL1       -0.4698
@<TRIPOS>BOND
     1    33    34    1
     2    34    22    1
     3    22    23   ar
     4    23    24   ar
     5    24    25   ar
     6    25    26   ar
     7    26    27   ar
     8    27    28   ar
     9    28    29    2
    10    28    30   ar
    11    30    21    1
    12    21    20    1
    13    20     1    1
    14     1     2    1
    15     2     3    1
    16     3     4    1
    17     4     7    1
    18     7     8    2
    19     8     9    1
    20     9    10    2
    21    10    11    1
    22    11    12    1
    23    12    16    1
    24    16    17    1
    25    16    18    1
    26    16    19    1
    27    12    13    2
    28    13    14    1
    29    14    15    2
    30     4     5    1
    31     5     6    1
    32    30    31   ar
    33    31    32   ar
    34    32    22   ar
    35    31    25   ar
    36     6     1    1
    37    15     7    1
    38    15    10    1
@<TRIPOS>MOLECULE
*****
 34 38 0 0 0
SMALL
GASTEIGER

@<TRIPOS>ATOM
      1 N         138.1443  139.6548  161.5676 N.3     1  UNL1       -0.2710
      2 C         138.7677  138.4841  162.2683 C.3     1  UNL1        0.0725
      3 C         138.9481  138.5104  163.7571 C.3     1  UNL1        0.0218
      4 C         138.5053  139.7073  164.5453 C.3     1  UNL1        0.0267
      5 C         137.8819  140.8780  163.8446 C.3     1  UNL1        0.0218
      6 C         137.7015  140.8517  162.3557 C.3     1  UNL1        0.0725
      7 C         138.6857  139.7336  166.0342 C.2     1  UNL1       -0.0022
      8 C         137.9307  138.9022  167.0286 C.2     1  UNL1        0.0942
      9 N         138.4312  139.2506  168.3991 N.2     1  UNL1       -0.2482
     10 C         139.4955  140.2974  168.2516 C.2     1  UNL1        0.0630
     11 C         140.3417  141.0173  169.2594 C.3     1  UNL1        0.0760
     12 C         141.3451  142.0356  168.8056 C.2     1  UNL1        0.0551
     13 C         141.5024  142.3341  167.3440 C.2     1  UNL1       -0.0000
     14 C         140.6562  141.6142  166.3363 C.2     1  UNL1        0.0005
     15 C         139.6527  140.5958  166.7901 C.2     1  UNL1        0.0114
     16 C         142.1913  142.7555  169.8134 C.3     1  UNL1        0.4153
     17 F         143.0376  143.4755  170.8212 F       1  UNL1       -0.1662
     18 F         143.1808  141.6285  169.7877 F       1  UNL1       -0.1662
     19 F         141.2020  143.8826  169.8391 F       1  UNL1       -0.1662
     20 C         137.9639  139.6285  160.0787 C.3     1  UNL1        0.0970
     21 C         138.9395  140.3443  159.1922 C.3     1  UNL1        0.1264
     22 C         140.6554  137.1730  156.4999 C.ar    1  UNL1        0.1593
     23 C         142.1163  136.8400  156.5697 C.ar    1  UNL1        0.1357
     24 N         143.0052  137.5640  157.5370 N.ar    1  UNL1       -0.2392
     25 C         142.4333  138.6211  158.4344 C.ar    1  UNL1        0.0975
     26 C         143.3222  139.3451  159.4017 C.ar    1  UNL1        0.0255
     27 C         142.7502  140.4022  160.2991 C.ar    1  UNL1        0.0623
     28 C         141.2893  140.7353  160.2293 C.ar    1  UNL1        0.2611
     29 O         140.7174  141.7923  161.1267 O.2     1  UNL1       -0.2670
     30 N         140.4004  140.0112  159.2620 N.ar    1  UNL1       -0.2926
     31 C         140.9724  138.9541  158.3646 C.ar    1  UNL1        0.0832
     32 C         140.0835  138.2301  157.3973 C.ar    1  UNL1        0.0573
     33 C         139.9762  136.6102  154.0562 C.3     1  UNL1        0.2525
     34 O         139.7665  136.4490  155.5326 O.3     1  UNL1       -0.4698
@<TRIPOS>BOND
     1    33    34    1
     2    34    22    1
     3    22    23   ar
     4    23    24   ar
     5    24    25   ar
     6    25    26   ar
     7    26    27   ar
     8    27    28   ar
     9    28    29    2
    10    28    30   ar
    11    30    21    1
    12    21    20    1
    13    20     1    1
    14     1     2    1
    15     2     3    1
    16     3     4    1
    17     4     7    1
    18     7     8    2
    19     8     9    1
    20     9    10    2
    21    10    11    1
    22    11    12    1
    23    12    16    1
    24    16    17    1
    25    16    18    1
    26    16    19    1
    27    12    13    2
    28    13    14    1
    29    14    15    2
    30     4     5    1
    31     5     6    1
    32    30    31   ar
    33    31    32   ar
    34    32    22   ar
    35    31    25   ar
    36     6     1    1
    37    15     7    1
    38    15    10    1
@<TRIPOS>MOLECULE
*****
 34 38 0 0 0
SMALL
GASTEIGER

@<TRIPOS>ATOM
      1 N         137.7584  139.7553  161.7879 N.3     1  UNL1       -0.2710
      2 C         137.5653  141.0044  162.5956 C.3     1  UNL1        0.0725
      3 C         137.9502  141.0272  164.0452 C.3     1  UNL1        0.0218
      4 C         138.5281  139.8008  164.6870 C.3     1  UNL1        0.0267
      5 C         138.7211  138.5517  163.8793 C.3     1  UNL1        0.0218
      6 C         138.3362  138.5289  162.4298 C.3     1  UNL1        0.0725
      7 C         138.9131  139.8236  166.1367 C.2     1  UNL1       -0.0022
      8 C         138.1490  139.1908  167.2618 C.2     1  UNL1        0.0942
      9 N         138.8933  139.4592  168.5362 N.2     1  UNL1       -0.2482
     10 C         140.1174  140.2578  168.1986 C.2     1  UNL1        0.0630
     11 C         141.2224  140.8091  169.0500 C.3     1  UNL1        0.0760
     12 C         142.3397  141.5855  168.4185 C.2     1  UNL1        0.0551
     13 C         142.3519  141.8107  166.9355 C.2     1  UNL1       -0.0000
     14 C         141.2468  141.2595  166.0841 C.2     1  UNL1        0.0005
     15 C         140.1296  140.4830  166.7157 C.2     1  UNL1        0.0114
     16 C         143.4447  142.1368  169.2699 C.3     1  UNL1        0.4153
     17 F         144.5499  142.6881  170.1213 F       1  UNL1       -0.1662
     18 F         142.8453  141.4760  170.4757 F       1  UNL1       -0.1662
     19 F         144.0442  142.7976  168.0641 F       1  UNL1       -0.1662
     20 C         137.3734  139.7325  160.3383 C.3     1  UNL1        0.0970
     21 C         138.4297  139.8509  159.2799 C.3     1  UNL1        0.1264
     22 C         136.0865  141.5124  155.8160 C.ar    1  UNL1        0.1593
     23 C         136.4349  142.8576  155.2512 C.ar    1  UNL1        0.1357
     24 N         137.5644  143.6490  155.8411 N.ar    1  UNL1       -0.2392
     25 C         138.3454  143.0952  156.9957 C.ar    1  UNL1        0.0975
     26 C         139.4749  143.8866  157.5856 C.ar    1  UNL1        0.0255
     27 C         140.2560  143.3328  158.7402 C.ar    1  UNL1        0.0623
     28 C         139.9076  141.9875  159.3050 C.ar    1  UNL1        0.2611
     29 O         140.6887  141.4337  160.4596 O.2     1  UNL1       -0.2670
     30 N         138.7781  141.1961  158.7151 N.ar    1  UNL1       -0.2926
     31 C         137.9970  141.7500  157.5605 C.ar    1  UNL1        0.0832
     32 C         136.8676  140.9586  156.9706 C.ar    1  UNL1        0.0573
     33 C         134.1498  141.2921  154.0982 C.3     1  UNL1        0.2525
     34 O         134.9570  140.7210  155.2261 O.3     1  UNL1       -0.4698
@<TRIPOS>BOND
     1    33    34    1
     2    34    22    1
     3    22    23   ar
     4    23    24   ar
     5    24    25   ar
     6    25    26   ar
     7    26    27   ar
     8    27    28   ar
     9    28    29    2
    10    28    30   ar
    11    30    21    1
    12    21    20    1
    13    20     1    1
    14     1     2    1
    15     2     3    1
    16     3     4    1
    17     4     7    1
    18     7     8    2
    19     8     9    1
    20     9    10    2
    21    10    11    1
    22    11    12    1
    23    12    16    1
    24    16    17    1
    25    16    18    1
    26    16    19    1
    27    12    13    2
    28    13    14    1
    29    14    15    2
    30     4     5    1
    31     5     6    1
    32    30    31   ar
    33    31    32   ar
    34    32    22   ar
    35    31    25   ar
    36     6     1    1
    37    15     7    1
    38    15    10    1
@<TRIPOS>MOLECULE
*****
 34 38 0 0 0
SMALL
GASTEIGER

@<TRIPOS>ATOM
      1 N         142.9283  139.0725  161.2256 N.3     1  UNL1       -0.2710
      2 C         141.9932  138.1739  161.9792 C.3     1  UNL1        0.0725
      3 C         141.9621  138.2116  163.4783 C.3     1  UNL1        0.0218
      4 C         142.8661  139.1479  164.2239 C.3     1  UNL1        0.0267
      5 C         143.8013  140.0465  163.4703 C.3     1  UNL1        0.0218
      6 C         143.8324  140.0088  161.9711 C.3     1  UNL1        0.0725
      7 C         142.8351  139.1856  165.7232 C.2     1  UNL1       -0.0022
      8 C         143.5564  138.2465  166.6439 C.2     1  UNL1        0.0942
      9 N         143.2444  138.6495  168.0546 N.2     1  UNL1       -0.2482
     10 C         142.3302  139.8378  168.0058 C.2     1  UNL1        0.0630
     11 C         141.6955  140.6609  169.0872 C.3     1  UNL1        0.0760
     12 C         140.8078  141.8153  168.7278 C.2     1  UNL1        0.0551
     13 C         140.5548  142.1467  167.2868 C.2     1  UNL1       -0.0000
     14 C         141.1896  141.3235  166.2054 C.2     1  UNL1        0.0005
     15 C         142.0773  140.1691  166.5649 C.2     1  UNL1        0.0114
     16 C         140.1730  142.6384  169.8092 C.3     1  UNL1        0.4153
     17 F         139.5382  143.4616  170.8907 F       1  UNL1       -0.1662
     18 F         141.1831  143.7227  169.5768 F       1  UNL1       -0.1662
     19 F         139.1629  141.5542  170.0417 F       1  UNL1       -0.1662
     20 C         142.9594  139.0348  159.7263 C.3     1  UNL1        0.0970
     21 C         142.6661  140.2771  158.9386 C.3     1  UNL1        0.1264
     22 C         142.0704  144.0912  161.2512 C.ar    1  UNL1        0.1593
     23 C         140.7108  144.7207  161.3221 C.ar    1  UNL1        0.1357
     24 N         139.5497  144.0788  160.6222 N.ar    1  UNL1       -0.2392
     25 C         139.7482  142.8075  159.8514 C.ar    1  UNL1        0.0975
     26 C         138.5871  142.1657  159.1515 C.ar    1  UNL1        0.0255
     27 C         138.7856  140.8943  158.3807 C.ar    1  UNL1        0.0623
     28 C         140.1453  140.2648  158.3097 C.ar    1  UNL1        0.2611
     29 O         140.3438  138.9934  157.5388 O.2     1  UNL1       -0.2670
     30 N         141.3064  140.9066  159.0096 N.ar    1  UNL1       -0.2926
     31 C         141.1078  142.1780  159.7804 C.ar    1  UNL1        0.0832
     32 C         142.2690  142.8199  160.4803 C.ar    1  UNL1        0.0573
     33 C         144.0880  143.9241  162.8795 C.3     1  UNL1        0.2525
     34 O         143.2315  144.7331  161.9511 O.3     1  UNL1       -0.4698
@<TRIPOS>BOND
     1    33    34    1
     2    34    22    1
     3    22    23   ar
     4    23    24   ar
     5    24    25   ar
     6    25    26   ar
     7    26    27   ar
     8    27    28   ar
     9    28    29    2
    10    28    30   ar
    11    30    21    1
    12    21    20    1
    13    20     1    1
    14     1     2    1
    15     2     3    1
    16     3     4    1
    17     4     7    1
    18     7     8    2
    19     8     9    1
    20     9    10    2
    21    10    11    1
    22    11    12    1
    23    12    16    1
    24    16    17    1
    25    16    18    1
    26    16    19    1
    27    12    13    2
    28    13    14    1
    29    14    15    2
    30     4     5    1
    31     5     6    1
    32    30    31   ar
    33    31    32   ar
    34    32    22   ar
    35    31    25   ar
    36     6     1    1
    37    15     7    1
    38    15    10    1
@<TRIPOS>MOLECULE
*****
 34 38 0 0 0
SMALL
GASTEIGER

@<TRIPOS>ATOM
      1 N         143.6832  140.6024  161.4700 N.3     1  UNL1       -0.2710
      2 C         143.1783  139.2744  161.9514 C.3     1  UNL1        0.0725
      3 C         142.9348  139.0501  163.4143 C.3     1  UNL1        0.0218
      4 C         143.1962  140.1538  164.3960 C.3     1  UNL1        0.0267
      5 C         143.7011  141.4817  163.9146 C.3     1  UNL1        0.0218
      6 C         143.9446  141.7060  162.4516 C.3     1  UNL1        0.0725
      7 C         142.9527  139.9295  165.8590 C.2     1  UNL1       -0.0022
      8 C         143.4841  138.7897  166.6767 C.2     1  UNL1        0.0942
      9 N         142.9949  138.9614  168.0843 N.2     1  UNL1       -0.2482
     10 C         142.1612  140.2073  168.1365 C.2     1  UNL1        0.0630
     11 C         141.4224  140.8743  169.2586 C.3     1  UNL1        0.0760
     12 C         140.6576  142.1395  169.0056 C.2     1  UNL1        0.0551
     13 C         140.6315  142.7379  167.6303 C.2     1  UNL1       -0.0000
     14 C         141.3703  142.0709  166.5081 C.2     1  UNL1        0.0005
     15 C         142.1351  140.8056  166.7612 C.2     1  UNL1        0.0114
     16 C         139.9188  142.8066  170.1277 C.3     1  UNL1        0.4153
     17 F         139.1799  143.4736  171.2500 F       1  UNL1       -0.1662
     18 F         139.0859  141.5728  170.3127 F       1  UNL1       -0.1662
     19 F         140.7516  144.0403  169.9428 F       1  UNL1       -0.1662
     20 C         143.9267  140.8266  160.0069 C.3     1  UNL1        0.0970
     21 C         144.3205  142.1868  159.5120 C.3     1  UNL1        0.1264
     22 C         141.1434  144.8526  161.2583 C.ar    1  UNL1        0.1593
     23 C         140.2238  145.6162  160.3522 C.ar    1  UNL1        0.1357
     24 N         140.3632  145.4912  158.8639 N.ar    1  UNL1       -0.2392
     25 C         141.4222  144.6026  158.2818 C.ar    1  UNL1        0.0975
     26 C         141.5616  144.4777  156.7935 C.ar    1  UNL1        0.0255
     27 C         142.6206  143.5891  156.2114 C.ar    1  UNL1        0.0623
     28 C         143.5403  142.8254  157.1176 C.ar    1  UNL1        0.2611
     29 O         144.5993  141.9368  156.5355 O.2     1  UNL1       -0.2670
     30 N         143.4009  142.9504  158.6059 N.ar    1  UNL1       -0.2926
     31 C         142.3418  143.8390  159.1880 C.ar    1  UNL1        0.0832
     32 C         142.2024  143.9640  160.6762 C.ar    1  UNL1        0.0573
     33 C         142.2173  145.2138  163.5963 C.3     1  UNL1        0.2525
     34 O         141.0040  144.9775  162.7466 O.3     1  UNL1       -0.4698
@<TRIPOS>BOND
     1    33    34    1
     2    34    22    1
     3    22    23   ar
     4    23    24   ar
     5    24    25   ar
     6    25    26   ar
     7    26    27   ar
     8    27    28   ar
     9    28    29    2
    10    28    30   ar
    11    30    21    1
    12    21    20    1
    13    20     1    1
    14     1     2    1
    15     2     3    1
    16     3     4    1
    17     4     7    1
    18     7     8    2
    19     8     9    1
    20     9    10    2
    21    10    11    1
    22    11    12    1
    23    12    16    1
    24    16    17    1
    25    16    18    1
    26    16    19    1
    27    12    13    2
    28    13    14    1
    29    14    15    2
    30     4     5    1
    31     5     6    1
    32    30    31   ar
    33    31    32   ar
    34    32    22   ar
    35    31    25   ar
    36     6     1    1
    37    15     7    1
    38    15    10    1
@<TRIPOS>MOLECULE
*****
 34 38 0 0 0
SMALL
GASTEIGER

@<TRIPOS>ATOM
      1 N         138.3457  139.4156  161.3307 N.3     1  UNL1       -0.2710
      2 C         137.7870  140.5934  162.0728 C.3     1  UNL1        0.0725
      3 C         137.9021  140.6619  163.5668 C.3     1  UNL1        0.0218
      4 C         138.5758  139.5526  164.3187 C.3     1  UNL1        0.0267
      5 C         139.1345  138.3748  163.5766 C.3     1  UNL1        0.0218
      6 C         139.0195  138.3063  162.0826 C.3     1  UNL1        0.0725
      7 C         138.6909  139.6210  165.8127 C.2     1  UNL1       -0.0022
      8 C         137.9436  138.7680  166.7946 C.2     1  UNL1        0.0942
      9 N         138.3643  139.1742  168.1759 N.2     1  UNL1       -0.2482
     10 C         139.3716  140.2783  168.0477 C.2     1  UNL1        0.0630
     11 C         140.1310  141.0680  169.0722 C.3     1  UNL1        0.0760
     12 C         141.0923  142.1337  168.6363 C.2     1  UNL1        0.0551
     13 C         141.2941  142.4099  167.1758 C.2     1  UNL1       -0.0000
     14 C         140.5347  141.6202  166.1513 C.2     1  UNL1        0.0005
     15 C         139.5734  140.5545  166.5872 C.2     1  UNL1        0.0114
     16 C         141.8517  142.9233  169.6608 C.3     1  UNL1        0.4153
     17 F         142.6113  143.7130  170.6854 F       1  UNL1       -0.1662
     18 F         142.9155  141.8661  169.6872 F       1  UNL1       -0.1662
     19 F         140.7881  143.9806  169.6345 F       1  UNL1       -0.1662
     20 C         138.2307  139.3472  159.8366 C.3     1  UNL1        0.0970
     21 C         139.1936  140.1086  158.9746 C.3     1  UNL1        0.1264
     22 C         139.3101  138.2190  154.8922 C.ar    1  UNL1        0.1593
     23 C         138.8099  138.9789  153.6996 C.ar    1  UNL1        0.1357
     24 N         138.2709  140.3685  153.8677 N.ar    1  UNL1       -0.2392
     25 C         138.2320  140.9984  155.2285 C.ar    1  UNL1        0.0975
     26 C         137.6930  142.3881  155.3966 C.ar    1  UNL1        0.0255
     27 C         137.6542  143.0179  156.7573 C.ar    1  UNL1        0.0623
     28 C         138.1544  142.2581  157.9501 C.ar    1  UNL1        0.2611
     29 O         138.1155  142.8880  159.3108 O.2     1  UNL1       -0.2670
     30 N         138.6934  140.8684  157.7820 N.ar    1  UNL1       -0.2926
     31 C         138.7322  140.2386  156.4211 C.ar    1  UNL1        0.0832
     32 C         139.2712  138.8489  156.2530 C.ar    1  UNL1        0.0573
     33 C         140.8160  136.2735  155.7272 C.3     1  UNL1        0.2525
     34 O         139.8491  136.8294  154.7241 O.3     1  UNL1       -0.4698
@<TRIPOS>BOND
     1    33    34    1
     2    34    22    1
     3    22    23   ar
     4    23    24   ar
     5    24    25   ar
     6    25    26   ar
     7    26    27   ar
     8    27    28   ar
     9    28    29    2
    10    28    30   ar
    11    30    21    1
    12    21    20    1
    13    20     1    1
    14     1     2    1
    15     2     3    1
    16     3     4    1
    17     4     7    1
    18     7     8    2
    19     8     9    1
    20     9    10    2
    21    10    11    1
    22    11    12    1
    23    12    16    1
    24    16    17    1
    25    16    18    1
    26    16    19    1
    27    12    13    2
    28    13    14    1
    29    14    15    2
    30     4     5    1
    31     5     6    1
    32    30    31   ar
    33    31    32   ar
    34    32    22   ar
    35    31    25   ar
    36     6     1    1
    37    15     7    1
    38    15    10    1
