@<TRIPOS>MOLECULE
*****
 35 39 0 0 0
SMALL
GASTEIGER

@<TRIPOS>ATOM
      1 N         141.0320  137.8511  161.6430 N.3     1  UNL1       -0.2724
      2 C         141.7582  137.6568  162.9410 C.3     1  UNL1        0.0722
      3 C         140.9862  137.5331  164.2211 C.3     1  UNL1        0.0211
      4 C         139.4880  137.6036  164.2032 C.3     1  UNL1        0.0466
      5 C         138.7617  137.7978  162.9053 C.3     1  UNL1        0.0211
      6 C         139.5337  137.9215  161.6251 C.3     1  UNL1        0.0722
      7 C         141.8039  137.9748  160.3629 C.3     1  UNL1        0.0768
      8 C         141.7269  139.2393  159.5598 C.3     1  UNL1        0.0437
      9 C         142.7188  143.1871  161.4786 C.ar    1  UNL1        0.0503
     10 C         143.7962  142.3874  160.8082 C.ar    1  UNL1        0.0143
     11 C         143.4656  141.0714  160.1686 C.ar    1  UNL1       -0.0029
     12 C         142.0575  140.5553  160.1994 C.ar    1  UNL1       -0.0207
     13 C         140.9801  141.3551  160.8698 C.ar    1  UNL1       -0.0029
     14 C         141.3107  142.6710  161.5094 C.ar    1  UNL1        0.0143
     15 C         143.8044  145.8684  164.1956 C.3     1  UNL1        0.0949
     16 C         143.4738  144.5525  163.5560 C.2     1  UNL1        0.2266
     17 O         143.5676  143.2860  164.3542 O.2     1  UNL1       -0.2748
     18 N         143.0494  144.5030  162.1181 N.am    1  UNL1       -0.2839
     19 H         142.9878  145.3343  161.5942 H       1  UNL1        0.1549
     20 C         138.7160  137.4799  165.4833 C.3     1  UNL1        0.2071
     21 O         138.0570  138.6874  166.0815 O.3     1  UNL1       -0.4602
     22 C         138.5640  140.0598  165.7503 C.ar    1  UNL1        0.2262
     23 N         137.8884  140.8722  164.6857 N.ar    1  UNL1       -0.2116
     24 C         138.3954  142.2446  164.3546 C.ar    1  UNL1        0.0844
     25 C         137.7198  143.0571  163.2900 C.ar    1  UNL1        0.0192
     26 C         138.2268  144.4294  162.9589 C.ar    1  UNL1        0.0015
     27 C         139.4094  144.9893  163.6924 C.ar    1  UNL1        0.0001
     28 C         140.0849  144.1768  164.7570 C.ar    1  UNL1        0.0015
     29 C         139.5780  142.8045  165.0881 C.ar    1  UNL1        0.0194
     30 C         140.2536  141.9920  166.1528 C.ar    1  UNL1        0.0246
     31 C         141.4305  142.2774  167.0378 C.ar    1  UNL1        0.0762
     32 N         141.6509  141.0814  167.9159 N.ar    1  UNL1       -0.3228
     33 C         142.7238  140.9356  168.9541 C.3     1  UNL1        0.1305
     34 C         140.6102  140.0569  167.5735 C.ar    1  UNL1        0.0806
     35 C         139.7466  140.6197  166.4839 C.ar    1  UNL1        0.0718
@<TRIPOS>BOND
     1    15    16    1
     2    16    17    2
     3    16    18   am
     4    18     9    1
     5     9    10   ar
     6    10    11   ar
     7    11    12   ar
     8    12     8    1
     9     8     7    1
    10     7     1    1
    11     1     2    1
    12     2     3    1
    13     3     4    1
    14     4    20    1
    15    20    21    1
    16    21    22    1
    17    22    23   ar
    18    23    24   ar
    19    24    25   ar
    20    25    26   ar
    21    26    27   ar
    22    27    28   ar
    23    28    29   ar
    24    29    30   ar
    25    30    31   ar
    26    31    32   ar
    27    32    33    1
    28    32    34   ar
    29    34    35   ar
    30     4     5    1
    31     5     6    1
    32    12    13   ar
    33    13    14   ar
    34    14     9   ar
    35     6     1    1
    36    35    22   ar
    37    29    24   ar
    38    35    30   ar
    39    18    19    1
@<TRIPOS>MOLECULE
*****
 35 39 0 0 0
SMALL
GASTEIGER

@<TRIPOS>ATOM
      1 N         137.9178  143.2170  162.4189 N.3     1  UNL1       -0.2724
      2 C         137.2860  142.2711  163.3968 C.3     1  UNL1        0.0722
      3 C         137.2365  140.8027  163.0950 C.3     1  UNL1        0.0211
      4 C         137.8189  140.2800  161.8153 C.3     1  UNL1        0.0466
      5 C         138.4507  141.2257  160.8374 C.3     1  UNL1        0.0211
      6 C         138.5002  142.6942  161.1392 C.3     1  UNL1        0.0722
      7 C         137.9673  144.6854  162.7207 C.3     1  UNL1        0.0768
      8 C         138.8265  145.1923  163.8408 C.3     1  UNL1        0.0437
      9 C         142.9376  143.4761  164.4770 C.ar    1  UNL1        0.0503
     10 C         141.7484  142.8363  165.1301 C.ar    1  UNL1        0.0143
     11 C         140.3780  143.4083  164.9180 C.ar    1  UNL1       -0.0029
     12 C         140.1969  144.6202  164.0529 C.ar    1  UNL1       -0.0207
     13 C         141.3860  145.2601  163.3999 C.ar    1  UNL1       -0.0029
     14 C         142.7563  144.6881  163.6119 C.ar    1  UNL1        0.0143
     15 C         146.2697  141.4044  163.8815 C.3     1  UNL1        0.0949
     16 C         144.8993  141.9765  163.6695 C.2     1  UNL1        0.2266
     17 O         144.1205  141.6209  162.4379 O.2     1  UNL1       -0.2748
     18 N         144.3079  142.9041  164.6891 N.am    1  UNL1       -0.2839
     19 H         144.8190  143.1375  165.4975 H       1  UNL1        0.1549
     20 C         137.7694  138.8115  161.5135 C.3     1  UNL1        0.2071
     21 O         138.2657  137.8209  162.5246 O.3     1  UNL1       -0.4602
     22 C         139.2238  138.2562  163.5935 C.ar    1  UNL1        0.2262
     23 N         138.7070  138.6829  164.9355 N.ar    1  UNL1       -0.2116
     24 C         139.6651  139.1183  166.0044 C.ar    1  UNL1        0.0844
     25 C         139.1483  139.5450  167.3463 C.ar    1  UNL1        0.0192
     26 C         140.1064  139.9804  168.4151 C.ar    1  UNL1        0.0015
     27 C         141.5814  139.9890  168.1420 C.ar    1  UNL1        0.0001
     28 C         142.0982  139.5623  166.8001 C.ar    1  UNL1        0.0015
     29 C         141.1400  139.1270  165.7313 C.ar    1  UNL1        0.0194
     30 C         141.6568  138.7002  164.3893 C.ar    1  UNL1        0.0246
     31 C         143.0465  138.6052  163.8328 C.ar    1  UNL1        0.0762
     32 N         142.9473  138.1111  162.4200 N.ar    1  UNL1       -0.3228
     33 C         144.0973  137.8697  161.4876 C.3     1  UNL1        0.1305
     34 C         141.4963  137.9008  162.1034 C.ar    1  UNL1        0.0806
     35 C         140.6987  138.2649  163.3205 C.ar    1  UNL1        0.0718
@<TRIPOS>BOND
     1    15    16    1
     2    16    17    2
     3    16    18   am
     4    18     9    1
     5     9    10   ar
     6    10    11   ar
     7    11    12   ar
     8    12     8    1
     9     8     7    1
    10     7     1    1
    11     1     2    1
    12     2     3    1
    13     3     4    1
    14     4    20    1
    15    20    21    1
    16    21    22    1
    17    22    23   ar
    18    23    24   ar
    19    24    25   ar
    20    25    26   ar
    21    26    27   ar
    22    27    28   ar
    23    28    29   ar
    24    29    30   ar
    25    30    31   ar
    26    31    32   ar
    27    32    33    1
    28    32    34   ar
    29    34    35   ar
    30     4     5    1
    31     5     6    1
    32    12    13   ar
    33    13    14   ar
    34    14     9   ar
    35     6     1    1
    36    35    22   ar
    37    29    24   ar
    38    35    30   ar
    39    18    19    1
@<TRIPOS>MOLECULE
*****
 35 39 0 0 0
SMALL
GASTEIGER

@<TRIPOS>ATOM
      1 N         139.8856  137.9806  163.6683 N.3     1  UNL1       -0.2724
      2 C         139.4361  138.3209  162.2783 C.3     1  UNL1        0.0722
      3 C         140.4370  138.3963  161.1637 C.3     1  UNL1        0.0211
      4 C         141.8875  138.1315  161.4391 C.3     1  UNL1        0.0466
      5 C         142.3371  137.7913  162.8290 C.3     1  UNL1        0.0211
      6 C         141.3362  137.7159  163.9437 C.3     1  UNL1        0.0722
      7 C         138.8847  137.9052  164.7829 C.3     1  UNL1        0.0768
      8 C         138.6822  139.0825  165.6901 C.3     1  UNL1        0.0437
      9 C         139.4479  143.2495  164.1734 C.ar    1  UNL1        0.0503
     10 C         140.5694  142.4496  164.7671 C.ar    1  UNL1        0.0143
     11 C         140.3141  141.0606  165.2726 C.ar    1  UNL1       -0.0029
     12 C         138.9375  140.4715  165.1845 C.ar    1  UNL1       -0.0207
     13 C         137.8160  141.2714  164.5908 C.ar    1  UNL1       -0.0029
     14 C         138.0712  142.6604  164.0852 C.ar    1  UNL1        0.0143
     15 C         139.7525  146.3471  161.7112 C.3     1  UNL1        0.0949
     16 C         139.4973  144.9580  162.2168 C.2     1  UNL1        0.2266
     17 O         139.0363  143.8886  161.2713 O.2     1  UNL1       -0.2748
     18 N         139.7031  144.6385  163.6678 N.am    1  UNL1       -0.2839
     19 H         140.0056  145.3404  164.2883 H       1  UNL1        0.1549
     20 C         142.8885  138.2070  160.3244 C.3     1  UNL1        0.2071
     21 O         144.0367  139.1683  160.4113 O.3     1  UNL1       -0.4602
     22 C         143.8336  140.5267  161.0144 C.ar    1  UNL1        0.2262
     23 N         144.3146  140.8086  162.4069 N.ar    1  UNL1       -0.2116
     24 C         144.1116  142.1669  163.0100 C.ar    1  UNL1        0.0844
     25 C         144.5926  142.4488  164.4025 C.ar    1  UNL1        0.0192
     26 C         144.3895  143.8072  165.0055 C.ar    1  UNL1        0.0015
     27 C         143.7054  144.8836  164.2160 C.ar    1  UNL1        0.0001
     28 C         143.2243  144.6017  162.8235 C.ar    1  UNL1        0.0015
     29 C         143.4274  143.2434  162.2205 C.ar    1  UNL1        0.0194
     30 C         142.9464  142.9614  160.8279 C.ar    1  UNL1        0.0246
     31 C         142.2439  143.8174  159.8162 C.ar    1  UNL1        0.0762
     32 N         142.0128  142.9881  158.5878 N.ar    1  UNL1       -0.3228
     33 C         141.3400  143.4469  157.3280 C.3     1  UNL1        0.1305
     34 C         142.5725  141.6196  158.8404 C.ar    1  UNL1        0.0806
     35 C         143.1495  141.6031  160.2249 C.ar    1  UNL1        0.0718
@<TRIPOS>BOND
     1    15    16    1
     2    16    17    2
     3    16    18   am
     4    18     9    1
     5     9    10   ar
     6    10    11   ar
     7    11    12   ar
     8    12     8    1
     9     8     7    1
    10     7     1    1
    11     1     2    1
    12     2     3    1
    13     3     4    1
    14     4    20    1
    15    20    21    1
    16    21    22    1
    17    22    23   ar
    18    23    24   ar
    19    24    25   ar
    20    25    26   ar
    21    26    27   ar
    22    27    28   ar
    23    28    29   ar
    24    29    30   ar
    25    30    31   ar
    26    31    32   ar
    27    32    33    1
    28    32    34   ar
    29    34    35   ar
    30     4     5    1
    31     5     6    1
    32    12    13   ar
    33    13    14   ar
    34    14     9   ar
    35     6     1    1
    36    35    22   ar
    37    29    24   ar
    38    35    30   ar
    39    18    19    1
@<TRIPOS>MOLECULE
*****
 35 39 0 0 0
SMALL
GASTEIGER

@<TRIPOS>ATOM
      1 N         143.5040  138.7706  163.8891 N.3     1  UNL1       -0.2724
      2 C         143.1162  138.5949  162.4507 C.3     1  UNL1        0.0722
      3 C         141.7239  138.1638  162.0966 C.3     1  UNL1        0.0211
      4 C         140.7192  137.9085  163.1807 C.3     1  UNL1        0.0466
      5 C         141.1069  138.0842  164.6190 C.3     1  UNL1        0.0211
      6 C         142.4993  138.5153  164.9732 C.3     1  UNL1        0.0722
      7 C         144.8964  139.2017  164.2432 C.3     1  UNL1        0.0768
      8 C         145.2083  140.6581  164.4205 C.3     1  UNL1        0.0437
      9 C         143.0639  143.7371  161.9362 C.ar    1  UNL1        0.0503
     10 C         142.4556  143.2521  163.2187 C.ar    1  UNL1        0.0143
     11 C         143.1705  142.2258  164.0468 C.ar    1  UNL1       -0.0029
     12 C         144.4935  141.6844  163.5924 C.ar    1  UNL1       -0.0207
     13 C         145.1017  142.1694  162.3098 C.ar    1  UNL1       -0.0029
     14 C         144.3870  143.1957  161.4818 C.ar    1  UNL1        0.0143
     15 C         140.9418  145.3816  159.0135 C.3     1  UNL1        0.0949
     16 C         141.6566  144.3553  159.8417 C.2     1  UNL1        0.2266
     17 O         141.6788  142.9210  159.4033 O.2     1  UNL1       -0.2748
     18 N         142.3491  144.7634  161.1081 N.am    1  UNL1       -0.2839
     19 H         142.3345  145.7048  161.3958 H       1  UNL1        0.1549
     20 C         139.3268  137.4775  162.8266 C.3     1  UNL1        0.2071
     21 O         138.1771  138.4208  163.0222 O.3     1  UNL1       -0.4602
     22 C         138.3792  139.8966  162.8451 C.ar    1  UNL1        0.2262
     23 N         138.6474  140.7653  164.0381 N.ar    1  UNL1       -0.2116
     24 C         138.8496  142.2411  163.8609 C.ar    1  UNL1        0.0844
     25 C         139.1177  143.1099  165.0539 C.ar    1  UNL1        0.0192
     26 C         139.3199  144.5856  164.8768 C.ar    1  UNL1        0.0015
     27 C         139.2539  145.1925  163.5066 C.ar    1  UNL1        0.0001
     28 C         138.9857  144.3237  162.3136 C.ar    1  UNL1        0.0015
     29 C         138.7836  142.8480  162.4908 C.ar    1  UNL1        0.0194
     30 C         138.5154  141.9791  161.2978 C.ar    1  UNL1        0.0246
     31 C         138.3944  142.2914  159.8357 C.ar    1  UNL1        0.0762
     32 N         138.1175  141.0086  159.1091 N.ar    1  UNL1       -0.3228
     33 C         137.9245  140.8575  157.6292 C.3     1  UNL1        0.1305
     34 C         138.0673  139.9036  160.1223 C.ar    1  UNL1        0.0806
     35 C         138.3132  140.5035  161.4749 C.ar    1  UNL1        0.0718
@<TRIPOS>BOND
     1    15    16    1
     2    16    17    2
     3    16    18   am
     4    18     9    1
     5     9    10   ar
     6    10    11   ar
     7    11    12   ar
     8    12     8    1
     9     8     7    1
    10     7     1    1
    11     1     2    1
    12     2     3    1
    13     3     4    1
    14     4    20    1
    15    20    21    1
    16    21    22    1
    17    22    23   ar
    18    23    24   ar
    19    24    25   ar
    20    25    26   ar
    21    26    27   ar
    22    27    28   ar
    23    28    29   ar
    24    29    30   ar
    25    30    31   ar
    26    31    32   ar
    27    32    33    1
    28    32    34   ar
    29    34    35   ar
    30     4     5    1
    31     5     6    1
    32    12    13   ar
    33    13    14   ar
    34    14     9   ar
    35     6     1    1
    36    35    22   ar
    37    29    24   ar
    38    35    30   ar
    39    18    19    1
@<TRIPOS>MOLECULE
*****
 35 39 0 0 0
SMALL
GASTEIGER

@<TRIPOS>ATOM
      1 N         137.7957  141.1343  161.2341 N.3     1  UNL1       -0.2724
      2 C         137.5197  140.6327  162.6206 C.3     1  UNL1        0.0722
      3 C         137.5598  141.5801  163.7828 C.3     1  UNL1        0.0211
      4 C         137.8759  143.0292  163.5586 C.3     1  UNL1        0.0466
      5 C         138.1519  143.5308  162.1722 C.3     1  UNL1        0.0211
      6 C         138.1118  142.5833  161.0099 C.3     1  UNL1        0.0722
      7 C         137.7555  140.1868  160.0720 C.3     1  UNL1        0.0768
      8 C         138.9552  139.3470  159.7472 C.3     1  UNL1        0.0437
      9 C         142.1252  138.6511  162.8646 C.ar    1  UNL1        0.0503
     10 C         142.1796  139.8756  161.9999 C.ar    1  UNL1        0.0143
     11 C         141.1230  140.1076  160.9607 C.ar    1  UNL1       -0.0029
     12 C         140.0119  139.1151  160.7864 C.ar    1  UNL1       -0.0207
     13 C         139.9574  137.8906  161.6510 C.ar    1  UNL1       -0.0029
     14 C         141.0140  137.6586  162.6901 C.ar    1  UNL1        0.0143
     15 C         143.8727  138.1885  166.3975 C.3     1  UNL1        0.0949
     16 C         142.8161  138.4205  165.3583 C.2     1  UNL1        0.2266
     17 O         141.3939  138.6539  165.7740 O.2     1  UNL1       -0.2748
     18 N         143.1818  138.4191  163.9036 N.am    1  UNL1       -0.2839
     19 H         144.1152  138.2660  163.6308 H       1  UNL1        0.1549
     20 C         137.9161  143.9766  164.7207 C.3     1  UNL1        0.2071
     21 O         139.1992  144.6627  165.0851 O.3     1  UNL1       -0.4602
     22 C         140.5012  143.9259  164.9751 C.ar    1  UNL1        0.2262
     23 N         141.3300  144.0492  163.7310 N.ar    1  UNL1       -0.2116
     24 C         142.6319  143.3123  163.6210 C.ar    1  UNL1        0.0844
     25 C         143.4608  143.4357  162.3769 C.ar    1  UNL1        0.0192
     26 C         144.7626  142.6988  162.2670 C.ar    1  UNL1        0.0015
     27 C         145.2357  141.8386  163.4012 C.ar    1  UNL1        0.0001
     28 C         144.4069  141.7153  164.6453 C.ar    1  UNL1        0.0015
     29 C         143.1050  142.4521  164.7552 C.ar    1  UNL1        0.0194
     30 C         142.2761  142.3288  165.9993 C.ar    1  UNL1        0.0246
     31 C         142.4831  141.5611  167.2712 C.ar    1  UNL1        0.0762
     32 N         141.3091  141.8235  168.1672 N.ar    1  UNL1       -0.3228
     33 C         141.1037  141.2556  169.5404 C.3     1  UNL1        0.1305
     34 C         140.3766  142.7533  167.4491 C.ar    1  UNL1        0.0806
     35 C         140.9742  143.0657  166.1093 C.ar    1  UNL1        0.0718
@<TRIPOS>BOND
     1    15    16    1
     2    16    17    2
     3    16    18   am
     4    18     9    1
     5     9    10   ar
     6    10    11   ar
     7    11    12   ar
     8    12     8    1
     9     8     7    1
    10     7     1    1
    11     1     2    1
    12     2     3    1
    13     3     4    1
    14     4    20    1
    15    20    21    1
    16    21    22    1
    17    22    23   ar
    18    23    24   ar
    19    24    25   ar
    20    25    26   ar
    21    26    27   ar
    22    27    28   ar
    23    28    29   ar
    24    29    30   ar
    25    30    31   ar
    26    31    32   ar
    27    32    33    1
    28    32    34   ar
    29    34    35   ar
    30     4     5    1
    31     5     6    1
    32    12    13   ar
    33    13    14   ar
    34    14     9   ar
    35     6     1    1
    36    35    22   ar
    37    29    24   ar
    38    35    30   ar
    39    18    19    1
@<TRIPOS>MOLECULE
*****
 35 39 0 0 0
SMALL
GASTEIGER

@<TRIPOS>ATOM
      1 N         138.4633  142.9935  162.7283 N.3     1  UNL1       -0.2724
      2 C         137.8850  141.9856  163.6769 C.3     1  UNL1        0.0722
      3 C         137.6180  140.5848  163.2118 C.3     1  UNL1        0.0211
      4 C         137.9293  140.1917  161.7981 C.3     1  UNL1        0.0466
      5 C         138.5076  141.1995  160.8495 C.3     1  UNL1        0.0211
      6 C         138.7747  142.6004  161.3146 C.3     1  UNL1        0.0722
      7 C         138.7303  144.3943  163.1934 C.3     1  UNL1        0.0768
      8 C         140.0628  144.7469  163.7851 C.3     1  UNL1        0.0437
      9 C         141.8464  142.1654  167.0108 C.ar    1  UNL1        0.0503
     10 C         142.6003  142.3999  165.7354 C.ar    1  UNL1        0.0143
     11 C         142.0057  143.2605  164.6601 C.ar    1  UNL1       -0.0029
     12 C         140.6573  143.8864  164.8603 C.ar    1  UNL1       -0.0207
     13 C         139.9035  143.6518  166.1357 C.ar    1  UNL1       -0.0029
     14 C         140.4980  142.7913  167.2110 C.ar    1  UNL1        0.0143
     15 C         142.2836  139.2487  169.6663 C.3     1  UNL1        0.0949
     16 C         141.6891  140.1092  168.5910 C.2     1  UNL1        0.2266
     17 O         140.3428  139.7740  168.0209 O.2     1  UNL1       -0.2748
     18 N         142.4409  141.3049  168.0860 N.am    1  UNL1       -0.2839
     19 H         143.3245  141.5249  168.4602 H       1  UNL1        0.1549
     20 C         137.6623  138.7909  161.3329 C.3     1  UNL1        0.2071
     21 O         138.7248  137.7407  161.4673 O.3     1  UNL1       -0.4602
     22 C         140.1043  138.1225  161.9161 C.ar    1  UNL1        0.2262
     23 N         140.4589  138.0761  163.3728 N.ar    1  UNL1       -0.2116
     24 C         141.8384  138.4579  163.8216 C.ar    1  UNL1        0.0844
     25 C         142.1929  138.4114  165.2783 C.ar    1  UNL1        0.0192
     26 C         143.5723  138.7933  165.7270 C.ar    1  UNL1        0.0015
     27 C         144.5972  139.2216  164.7189 C.ar    1  UNL1        0.0001
     28 C         144.2426  139.2681  163.2622 C.ar    1  UNL1        0.0015
     29 C         142.8632  138.8862  162.8135 C.ar    1  UNL1        0.0194
     30 C         142.5086  138.9327  161.3567 C.ar    1  UNL1        0.0246
     31 C         143.3030  139.3114  160.1420 C.ar    1  UNL1        0.0762
     32 N         142.4145  139.1636  158.9426 N.ar    1  UNL1       -0.3228
     33 C         142.8015  139.4378  157.5195 C.3     1  UNL1        0.1305
     34 C         141.0710  138.6936  159.4160 C.ar    1  UNL1        0.0806
     35 C         141.1292  138.5509  160.9080 C.ar    1  UNL1        0.0718
@<TRIPOS>BOND
     1    15    16    1
     2    16    17    2
     3    16    18   am
     4    18     9    1
     5     9    10   ar
     6    10    11   ar
     7    11    12   ar
     8    12     8    1
     9     8     7    1
    10     7     1    1
    11     1     2    1
    12     2     3    1
    13     3     4    1
    14     4    20    1
    15    20    21    1
    16    21    22    1
    17    22    23   ar
    18    23    24   ar
    19    24    25   ar
    20    25    26   ar
    21    26    27   ar
    22    27    28   ar
    23    28    29   ar
    24    29    30   ar
    25    30    31   ar
    26    31    32   ar
    27    32    33    1
    28    32    34   ar
    29    34    35   ar
    30     4     5    1
    31     5     6    1
    32    12    13   ar
    33    13    14   ar
    34    14     9   ar
    35     6     1    1
    36    35    22   ar
    37    29    24   ar
    38    35    30   ar
    39    18    19    1
@<TRIPOS>MOLECULE
*****
 35 39 0 0 0
SMALL
GASTEIGER

@<TRIPOS>ATOM
      1 N         138.0191  141.8116  164.3274 N.3     1  UNL1       -0.2724
      2 C         138.7583  140.8984  165.2601 C.3     1  UNL1        0.0722
      3 C         139.0846  139.4972  164.8358 C.3     1  UNL1        0.0211
      4 C         138.6719  139.0091  163.4789 C.3     1  UNL1        0.0466
      5 C         137.9327  139.9221  162.5462 C.3     1  UNL1        0.0211
      6 C         137.6063  141.3234  162.9704 C.3     1  UNL1        0.0722
      7 C         137.6927  143.2128  164.7517 C.3     1  UNL1        0.0768
      8 C         138.7644  144.2621  164.7619 C.3     1  UNL1        0.0437
      9 C         141.1166  145.1125  161.0210 C.ar    1  UNL1        0.0503
     10 C         139.9320  145.9632  161.3717 C.ar    1  UNL1        0.0143
     11 C         139.1480  145.6797  162.6187 C.ar    1  UNL1       -0.0029
     12 C         139.5485  144.5456  163.5149 C.ar    1  UNL1       -0.0207
     13 C         140.7331  143.6949  163.1642 C.ar    1  UNL1       -0.0029
     14 C         141.5172  143.9783  161.9173 C.ar    1  UNL1        0.0143
     15 C         142.1629  145.2297  157.1945 C.3     1  UNL1        0.0949
     16 C         141.3788  144.9463  158.4416 C.2     1  UNL1        0.2266
     17 O         140.0729  144.2133  158.3560 O.2     1  UNL1       -0.2748
     18 N         141.9007  145.3959  159.7740 N.am    1  UNL1       -0.2839
     19 H         142.7578  145.8769  159.8302 H       1  UNL1        0.1549
     20 C         138.9983  137.6079  163.0546 C.3     1  UNL1        0.2071
     21 O         140.2591  137.3299  162.2910 O.3     1  UNL1       -0.4602
     22 C         141.3075  138.3949  162.1611 C.ar    1  UNL1        0.2262
     23 N         142.3272  138.5797  163.2454 N.ar    1  UNL1       -0.2116
     24 C         143.3756  139.6446  163.1155 C.ar    1  UNL1        0.0844
     25 C         144.3953  139.8294  164.1999 C.ar    1  UNL1        0.0192
     26 C         145.4437  140.8943  164.0700 C.ar    1  UNL1        0.0015
     27 C         145.4723  141.7744  162.8556 C.ar    1  UNL1        0.0001
     28 C         144.4525  141.5896  161.7712 C.ar    1  UNL1        0.0015
     29 C         143.4042  140.5247  161.9012 C.ar    1  UNL1        0.0194
     30 C         142.3844  140.3398  160.8168 C.ar    1  UNL1        0.0246
     31 C         142.1642  141.0507  159.5144 C.ar    1  UNL1        0.0762
     32 N         140.9797  140.4251  158.8394 N.ar    1  UNL1       -0.3228
     33 C         140.4074  140.8265  157.5122 C.3     1  UNL1        0.1305
     34 C         140.4679  139.3276  159.7246 C.ar    1  UNL1        0.0806
     35 C         141.3361  139.2749  160.9467 C.ar    1  UNL1        0.0718
@<TRIPOS>BOND
     1    15    16    1
     2    16    17    2
     3    16    18   am
     4    18     9    1
     5     9    10   ar
     6    10    11   ar
     7    11    12   ar
     8    12     8    1
     9     8     7    1
    10     7     1    1
    11     1     2    1
    12     2     3    1
    13     3     4    1
    14     4    20    1
    15    20    21    1
    16    21    22    1
    17    22    23   ar
    18    23    24   ar
    19    24    25   ar
    20    25    26   ar
    21    26    27   ar
    22    27    28   ar
    23    28    29   ar
    24    29    30   ar
    25    30    31   ar
    26    31    32   ar
    27    32    33    1
    28    32    34   ar
    29    34    35   ar
    30     4     5    1
    31     5     6    1
    32    12    13   ar
    33    13    14   ar
    34    14     9   ar
    35     6     1    1
    36    35    22   ar
    37    29    24   ar
    38    35    30   ar
    39    18    19    1
@<TRIPOS>MOLECULE
*****
 35 39 0 0 0
SMALL
GASTEIGER

@<TRIPOS>ATOM
      1 N         144.5085  141.5559  161.1718 N.3     1  UNL1       -0.2724
      2 C         145.2992  142.1078  162.3209 C.3     1  UNL1        0.0722
      3 C         145.4396  141.3129  163.5851 C.3     1  UNL1        0.0211
      4 C         144.7894  139.9660  163.7004 C.3     1  UNL1        0.0466
      5 C         143.9988  139.4141  162.5514 C.3     1  UNL1        0.0211
      6 C         143.8583  140.2091  161.2871 C.3     1  UNL1        0.0722
      7 C         144.3681  142.3508  159.9076 C.3     1  UNL1        0.0768
      8 C         143.0382  142.9346  159.5326 C.3     1  UNL1        0.0437
      9 C         140.4008  144.7421  162.6992 C.ar    1  UNL1        0.0503
     10 C         141.8865  144.9407  162.7574 C.ar    1  UNL1        0.0143
     11 C         142.7656  144.3382  161.7019 C.ar    1  UNL1       -0.0029
     12 C         142.1591  143.5371  160.5882 C.ar    1  UNL1       -0.0207
     13 C         140.6734  143.3385  160.5300 C.ar    1  UNL1       -0.0029
     14 C         139.7943  143.9410  161.5855 C.ar    1  UNL1        0.0143
     15 C         138.2335  145.1315  166.0009 C.3     1  UNL1        0.0949
     16 C         139.1127  144.5290  164.9454 C.2     1  UNL1        0.2266
     17 O         139.5829  143.1111  165.0805 O.2     1  UNL1       -0.2748
     18 N         139.5217  145.3446  163.7547 N.am    1  UNL1       -0.2839
     19 H         139.2131  146.2752  163.6660 H       1  UNL1        0.1549
     20 C         144.9299  139.1711  164.9646 C.3     1  UNL1        0.2071
     21 O         143.7986  138.3065  165.4365 O.3     1  UNL1       -0.4602
     22 C         142.7360  138.8810  166.3259 C.ar    1  UNL1        0.2262
     23 N         143.0548  139.2222  167.7513 N.ar    1  UNL1       -0.2116
     24 C         141.9923  139.7967  168.6407 C.ar    1  UNL1        0.0844
     25 C         142.3111  140.1378  170.0662 C.ar    1  UNL1        0.0192
     26 C         141.2486  140.7123  170.9555 C.ar    1  UNL1        0.0015
     27 C         139.8672  140.9457  170.4194 C.ar    1  UNL1        0.0001
     28 C         139.5484  140.6045  168.9939 C.ar    1  UNL1        0.0015
     29 C         140.6109  140.0300  168.1046 C.ar    1  UNL1        0.0194
     30 C         140.2922  139.6889  166.6791 C.ar    1  UNL1        0.0246
     31 C         139.0303  139.8073  165.8769 C.ar    1  UNL1        0.0762
     32 N         139.3129  139.3059  164.4917 N.ar    1  UNL1       -0.3228
     33 C         138.3313  139.2437  163.3591 C.3     1  UNL1        0.1305
     34 C         140.7495  138.8777  164.4378 C.ar    1  UNL1        0.0806
     35 C         141.3547  139.1144  165.7898 C.ar    1  UNL1        0.0718
@<TRIPOS>BOND
     1    15    16    1
     2    16    17    2
     3    16    18   am
     4    18     9    1
     5     9    10   ar
     6    10    11   ar
     7    11    12   ar
     8    12     8    1
     9     8     7    1
    10     7     1    1
    11     1     2    1
    12     2     3    1
    13     3     4    1
    14     4    20    1
    15    20    21    1
    16    21    22    1
    17    22    23   ar
    18    23    24   ar
    19    24    25   ar
    20    25    26   ar
    21    26    27   ar
    22    27    28   ar
    23    28    29   ar
    24    29    30   ar
    25    30    31   ar
    26    31    32   ar
    27    32    33    1
    28    32    34   ar
    29    34    35   ar
    30     4     5    1
    31     5     6    1
    32    12    13   ar
    33    13    14   ar
    34    14     9   ar
    35     6     1    1
    36    35    22   ar
    37    29    24   ar
    38    35    30   ar
    39    18    19    1
@<TRIPOS>MOLECULE
*****
 35 39 0 0 0
SMALL
GASTEIGER

@<TRIPOS>ATOM
      1 N         138.4431  139.4798  161.3804 N.3     1  UNL1       -0.2724
      2 C         139.5455  139.4988  160.3633 C.3     1  UNL1        0.0722
      3 C         139.9109  140.7816  159.6771 C.3     1  UNL1        0.0211
      4 C         139.1738  142.0454  160.0079 C.3     1  UNL1        0.0466
      5 C         138.0714  142.0265  161.0249 C.3     1  UNL1        0.0211
      6 C         137.7060  140.7436  161.7112 C.3     1  UNL1        0.0722
      7 C         138.0778  138.1970  162.0666 C.3     1  UNL1        0.0768
      8 C         139.0125  137.5913  163.0713 C.3     1  UNL1        0.0437
      9 C         140.8073  140.1542  166.3057 C.ar    1  UNL1        0.0503
     10 C         141.5673  139.9069  165.0364 C.ar    1  UNL1        0.0143
     11 C         140.9690  139.0527  163.9582 C.ar    1  UNL1       -0.0029
     12 C         139.6108  138.4456  164.1495 C.ar    1  UNL1       -0.0207
     13 C         138.8507  138.6929  165.4188 C.ar    1  UNL1       -0.0029
     14 C         139.4489  139.5471  166.4969 C.ar    1  UNL1        0.0143
     15 C         143.0893  141.3126  169.3389 C.3     1  UNL1        0.0949
     16 C         142.4911  140.4584  168.2607 C.2     1  UNL1        0.2266
     17 O         142.9784  139.0541  168.0594 O.2     1  UNL1       -0.2748
     18 N         141.4055  141.0084  167.3838 N.am    1  UNL1       -0.2839
     19 H         141.0856  141.9301  167.5159 H       1  UNL1        0.1549
     20 C         139.5391  143.3282  159.3217 C.3     1  UNL1        0.2071
     21 O         140.4132  144.3288  160.0180 O.3     1  UNL1       -0.4602
     22 C         141.2664  143.9021  161.1756 C.ar    1  UNL1        0.2262
     23 N         142.6255  143.3168  160.9301 N.ar    1  UNL1       -0.2116
     24 C         143.4787  142.8902  162.0877 C.ar    1  UNL1        0.0844
     25 C         144.8377  142.3049  161.8422 C.ar    1  UNL1        0.0192
     26 C         145.6909  141.8783  162.9998 C.ar    1  UNL1        0.0015
     27 C         145.1850  142.0370  164.4030 C.ar    1  UNL1        0.0001
     28 C         143.8259  142.6223  164.6485 C.ar    1  UNL1        0.0015
     29 C         142.9728  143.0489  163.4909 C.ar    1  UNL1        0.0194
     30 C         141.6136  143.6343  163.7364 C.ar    1  UNL1        0.0246
     31 C         140.8533  143.9109  164.9994 C.ar    1  UNL1        0.0762
     32 N         139.5301  144.5086  164.6224 N.ar    1  UNL1       -0.3228
     33 C         138.4533  144.9381  165.5743 C.3     1  UNL1        0.1305
     34 C         139.4728  144.6012  163.1264 C.ar    1  UNL1        0.0806
     35 C         140.7605  144.0608  162.5788 C.ar    1  UNL1        0.0718
@<TRIPOS>BOND
     1    15    16    1
     2    16    17    2
     3    16    18   am
     4    18     9    1
     5     9    10   ar
     6    10    11   ar
     7    11    12   ar
     8    12     8    1
     9     8     7    1
    10     7     1    1
    11     1     2    1
    12     2     3    1
    13     3     4    1
    14     4    20    1
    15    20    21    1
    16    21    22    1
    17    22    23   ar
    18    23    24   ar
    19    24    25   ar
    20    25    26   ar
    21    26    27   ar
    22    27    28   ar
    23    28    29   ar
    24    29    30   ar
    25    30    31   ar
    26    31    32   ar
    27    32    33    1
    28    32    34   ar
    29    34    35   ar
    30     4     5    1
    31     5     6    1
    32    12    13   ar
    33    13    14   ar
    34    14     9   ar
    35     6     1    1
    36    35    22   ar
    37    29    24   ar
    38    35    30   ar
    39    18    19    1
