@<TRIPOS>MOLECULE
*****
 34 36 0 0 0
SMALL
GASTEIGER

@<TRIPOS>ATOM
      1 C         142.0921  139.0725  164.5394 C.3     1  UNL1        0.0690
      2 C         140.9597  138.0903  164.4849 C.3     1  UNL1        0.0485
      3 C         140.8048  137.1896  163.2955 C.3     1  UNL1        0.1436
      4 O         141.7822  137.2712  162.1606 O.3     1  UNL1       -0.3537
      5 C         142.9145  138.2534  162.2151 C.3     1  UNL1        0.1436
      6 C         143.0694  139.1541  163.4045 C.3     1  UNL1        0.0485
      7 N         140.0993  139.9580  168.4758 N.3     1  UNL1       -0.2682
      8 C         139.2729  139.8146  167.2323 C.3     1  UNL1        0.0897
      9 C         139.9371  139.5195  165.9201 C.3     1  UNL1        0.0896
     10 N         141.4278  139.3677  165.8516 N.3     1  UNL1       -0.2710
     11 C         142.2542  139.5110  167.0951 C.3     1  UNL1        0.0896
     12 C         141.5900  139.8062  168.4072 C.3     1  UNL1        0.0897
     13 C         139.4350  140.2531  169.7879 C.3     1  UNL1        0.1046
     14 C         140.2343  140.2224  171.0568 C.3     1  UNL1        0.1594
     15 O         140.7386  141.5014  171.6567 O.3     1  UNL1       -0.3523
     16 C         141.9628  142.1617  171.0950 C.3     1  UNL1        0.1422
     17 C         140.4672  143.7610  169.6967 C.3     1  UNL1        0.0027
     18 C         141.8259  143.2414  170.0628 C.3     1  UNL1        0.0321
     19 C         142.9937  140.1573  165.0497 C.3     1  UNL1        0.1143
     20 N         142.8774  141.5488  164.5017 N.am    1  UNL1       -0.2425
     21 C         144.0983  142.2626  164.0020 C.2     1  UNL1        0.2304
     22 O         145.4356  141.5849  164.0502 O.2     1  UNL1       -0.2745
     23 C         141.5400  142.2265  164.4534 C.ar    1  UNL1        0.1373
     24 C         141.0284  142.9626  165.6561 C.ar    1  UNL1        0.0347
     25 C         139.6911  143.6403  165.6078 C.ar    1  UNL1        0.0044
     26 C         138.8654  143.5818  164.3569 C.ar    1  UNL1        0.0232
     27 C         139.3770  142.8457  163.1542 C.ar    1  UNL1        0.1540
     28 N         140.7144  142.1680  163.2025 N.ar    1  UNL1       -0.2263
     29 C         138.5513  142.7873  161.9034 C.3     1  UNL1        0.4349
     30 F         137.7255  142.7288  160.6524 F       1  UNL1       -0.1644
     31 F         137.4957  143.6259  162.5610 F       1  UNL1       -0.1644
     32 F         139.6069  141.9486  161.2457 F       1  UNL1       -0.1644
     33 C         143.9821  143.6540  163.4540 C.3     1  UNL1        0.0857
     34 C         143.9404  144.8269  164.3880 C.3     1  UNL1        0.0101
@<TRIPOS>BOND
     1    17    18    1
     2    18    16    1
     3    16    15    1
     4    15    14    1
     5    14    13    1
     6    13     7    1
     7     7     8    1
     8     8     9    1
     9     9    10    1
    10    10     1    1
    11     1    19    1
    12    19    20    1
    13    20    21   am
    14    21    22    2
    15    21    33    1
    16    33    34    1
    17    20    23    1
    18    23    24   ar
    19    24    25   ar
    20    25    26   ar
    21    26    27   ar
    22    27    29    1
    23    29    30    1
    24    29    31    1
    25    29    32    1
    26    27    28   ar
    27     1     2    1
    28     2     3    1
    29     3     4    1
    30     4     5    1
    31     5     6    1
    32    10    11    1
    33    11    12    1
    34    12     7    1
    35     6     1    1
    36    28    23   ar
@<TRIPOS>MOLECULE
*****
 34 36 0 0 0
SMALL
GASTEIGER

@<TRIPOS>ATOM
      1 C         143.0811  141.8866  164.3476 C.3     1  UNL1        0.0690
      2 C         144.2717  140.9742  164.3436 C.3     1  UNL1        0.0485
      3 C         145.1615  140.9076  163.1378 C.3     1  UNL1        0.1436
      4 O         144.8606  141.7533  161.9361 O.3     1  UNL1       -0.3537
      5 C         143.6700  142.6656  161.9401 C.3     1  UNL1        0.1436
      6 C         142.7802  142.7323  163.1459 C.3     1  UNL1        0.0485
      7 N         142.6969  140.0824  168.4522 N.3     1  UNL1       -0.2682
      8 C         142.7885  141.5710  168.2929 C.3     1  UNL1        0.0897
      9 C         142.9166  142.1724  166.9247 C.3     1  UNL1        0.0896
     10 N         142.9530  141.2852  165.7158 N.3     1  UNL1       -0.2710
     11 C         142.8614  139.7965  165.8752 C.3     1  UNL1        0.0896
     12 C         142.7334  139.1951  167.2433 C.3     1  UNL1        0.0897
     13 C         142.5689  139.4810  169.8204 C.3     1  UNL1        0.1046
     14 C         142.6246  140.3602  171.0343 C.3     1  UNL1        0.1594
     15 O         141.3549  140.8590  171.6581 O.3     1  UNL1       -0.3523
     16 C         140.6470  142.0448  171.0726 C.3     1  UNL1        0.1422
     17 C         138.9786  140.4638  169.8615 C.3     1  UNL1        0.0027
     18 C         139.5164  141.8422  170.1079 C.3     1  UNL1        0.0321
     19 C         141.8460  142.5900  164.8269 C.3     1  UNL1        0.1143
     20 N         140.5084  142.2349  164.2483 N.am    1  UNL1       -0.2425
     21 C         139.5923  143.3166  163.7578 C.2     1  UNL1        0.2304
     22 O         140.0137  144.7535  163.8460 O.2     1  UNL1       -0.2745
     23 C         140.0870  140.7981  164.1601 C.ar    1  UNL1        0.1373
     24 C         140.4771  139.9738  162.9691 C.ar    1  UNL1        0.0347
     25 C         140.0557  138.5369  162.8810 C.ar    1  UNL1        0.0044
     26 C         139.2442  137.9243  163.9837 C.ar    1  UNL1        0.0232
     27 C         138.8540  138.7486  165.1747 C.ar    1  UNL1        0.1540
     28 N         139.2754  140.1855  165.2629 N.ar    1  UNL1       -0.2263
     29 C         138.0425  138.1359  166.2774 C.3     1  UNL1        0.4349
     30 F         137.2309  137.5231  167.3802 F       1  UNL1       -0.1644
     31 F         137.7258  139.5040  166.8046 F       1  UNL1       -0.1644
     32 F         138.3591  136.7677  165.7502 F       1  UNL1       -0.1644
     33 C         138.2547  142.9616  163.1792 C.3     1  UNL1        0.0857
     34 C         138.0864  142.8491  161.6930 C.3     1  UNL1        0.0101
@<TRIPOS>BOND
     1    17    18    1
     2    18    16    1
     3    16    15    1
     4    15    14    1
     5    14    13    1
     6    13     7    1
     7     7     8    1
     8     8     9    1
     9     9    10    1
    10    10     1    1
    11     1    19    1
    12    19    20    1
    13    20    21   am
    14    21    22    2
    15    21    33    1
    16    33    34    1
    17    20    23    1
    18    23    24   ar
    19    24    25   ar
    20    25    26   ar
    21    26    27   ar
    22    27    29    1
    23    29    30    1
    24    29    31    1
    25    29    32    1
    26    27    28   ar
    27     1     2    1
    28     2     3    1
    29     3     4    1
    30     4     5    1
    31     5     6    1
    32    10    11    1
    33    11    12    1
    34    12     7    1
    35     6     1    1
    36    28    23   ar
@<TRIPOS>MOLECULE
*****
 34 36 0 0 0
SMALL
GASTEIGER

@<TRIPOS>ATOM
      1 C         142.9944  141.4638  164.5158 C.3     1  UNL1        0.0690
      2 C         143.8333  140.2225  164.5879 C.3     1  UNL1        0.0485
      3 C         144.3983  139.6252  163.3332 C.3     1  UNL1        0.1436
      4 O         144.1244  140.2693  162.0066 O.3     1  UNL1       -0.3537
      5 C         143.2855  141.5107  161.9345 C.3     1  UNL1        0.1436
      6 C         142.7205  142.1079  163.1892 C.3     1  UNL1        0.0485
      7 N         142.9349  140.7371  168.9564 N.3     1  UNL1       -0.2682
      8 C         143.1682  142.1206  168.4258 C.3     1  UNL1        0.0897
      9 C         143.1881  142.3628  166.9457 C.3     1  UNL1        0.0896
     10 N         142.9746  141.2216  165.9960 N.3     1  UNL1       -0.2710
     11 C         142.7412  139.8381  166.5265 C.3     1  UNL1        0.0896
     12 C         142.7214  139.5959  168.0067 C.3     1  UNL1        0.0897
     13 C         142.9151  140.4949  170.4365 C.3     1  UNL1        0.1046
     14 C         141.6142  140.5181  171.1829 C.3     1  UNL1        0.1594
     15 O         140.3247  140.2959  170.4496 O.3     1  UNL1       -0.3523
     16 C         139.5278  141.4693  169.9613 C.3     1  UNL1        0.1422
     17 C         140.3913  143.9174  169.8562 C.3     1  UNL1        0.0027
     18 C         139.7026  142.8138  170.6030 C.3     1  UNL1        0.0321
     19 C         142.1486  142.6211  164.9579 C.3     1  UNL1        0.1143
     20 N         140.6644  142.5908  164.7423 N.am    1  UNL1       -0.2425
     21 C         139.9431  143.8345  164.3151 C.2     1  UNL1        0.2304
     22 O         140.7058  145.1087  164.1033 O.2     1  UNL1       -0.2745
     23 C         139.9017  141.3167  164.9541 C.ar    1  UNL1        0.1373
     24 C         139.5023  140.9031  166.3395 C.ar    1  UNL1        0.0347
     25 C         138.7395  139.6290  166.5513 C.ar    1  UNL1        0.0044
     26 C         138.3763  138.7684  165.3776 C.ar    1  UNL1        0.0232
     27 C         138.7757  139.1820  163.9922 C.ar    1  UNL1        0.1540
     28 N         139.5384  140.4561  163.7804 N.ar    1  UNL1       -0.2263
     29 C         138.4123  138.3214  162.8186 C.3     1  UNL1        0.4349
     30 F         138.0491  137.4607  161.6450 F       1  UNL1       -0.1644
     31 F         137.5083  139.4028  162.3054 F       1  UNL1       -0.1644
     32 F         139.3164  137.2400  163.3318 F       1  UNL1       -0.1644
     33 C         138.4590  143.8043  164.0995 C.3     1  UNL1        0.0857
     34 C         137.9052  143.5624  162.7267 C.3     1  UNL1        0.0101
@<TRIPOS>BOND
     1    17    18    1
     2    18    16    1
     3    16    15    1
     4    15    14    1
     5    14    13    1
     6    13     7    1
     7     7     8    1
     8     8     9    1
     9     9    10    1
    10    10     1    1
    11     1    19    1
    12    19    20    1
    13    20    21   am
    14    21    22    2
    15    21    33    1
    16    33    34    1
    17    20    23    1
    18    23    24   ar
    19    24    25   ar
    20    25    26   ar
    21    26    27   ar
    22    27    29    1
    23    29    30    1
    24    29    31    1
    25    29    32    1
    26    27    28   ar
    27     1     2    1
    28     2     3    1
    29     3     4    1
    30     4     5    1
    31     5     6    1
    32    10    11    1
    33    11    12    1
    34    12     7    1
    35     6     1    1
    36    28    23   ar
@<TRIPOS>MOLECULE
*****
 34 36 0 0 0
SMALL
GASTEIGER

@<TRIPOS>ATOM
      1 C         143.4287  141.9912  164.5815 C.3     1  UNL1        0.0690
      2 C         144.5691  141.0194  164.6523 C.3     1  UNL1        0.0485
      3 C         145.5871  140.9762  163.5514 C.3     1  UNL1        0.1436
      4 O         145.4647  141.9048  162.3798 O.3     1  UNL1       -0.3537
      5 C         144.3243  142.8766  162.3090 C.3     1  UNL1        0.1436
      6 C         143.3063  142.9198  163.4099 C.3     1  UNL1        0.0485
      7 N         142.4952  139.9746  168.4945 N.3     1  UNL1       -0.2682
      8 C         142.7245  139.1508  167.2622 C.3     1  UNL1        0.0897
      9 C         143.0357  139.8230  165.9578 C.3     1  UNL1        0.0896
     10 N         143.1176  141.3190  165.8858 N.3     1  UNL1       -0.2710
     11 C         142.8883  142.1428  167.1182 C.3     1  UNL1        0.0896
     12 C         142.5771  141.4706  168.4225 C.3     1  UNL1        0.0897
     13 C         142.1841  139.3024  169.7989 C.3     1  UNL1        0.1046
     14 C         143.2727  138.6105  170.5645 C.3     1  UNL1        0.1594
     15 O         143.6894  137.2204  170.1850 O.3     1  UNL1       -0.3523
     16 C         144.1134  136.2486  171.2461 C.3     1  UNL1        0.1422
     17 C         146.5753  136.7180  171.9305 C.3     1  UNL1        0.0027
     18 C         145.5447  135.8079  171.3309 C.3     1  UNL1        0.0321
     19 C         142.1802  142.7296  164.9637 C.3     1  UNL1        0.1143
     20 N         140.8876  142.4295  164.2644 N.am    1  UNL1       -0.2425
     21 C         140.0432  143.5507  163.7354 C.2     1  UNL1        0.2304
     22 O         140.4914  144.9720  163.9056 O.2     1  UNL1       -0.2745
     23 C         140.4393  141.0082  164.0942 C.ar    1  UNL1        0.1373
     24 C         140.8612  140.2286  162.8841 C.ar    1  UNL1        0.0347
     25 C         140.4130  138.8073  162.7138 C.ar    1  UNL1        0.0044
     26 C         139.5430  138.1656  163.7536 C.ar    1  UNL1        0.0232
     27 C         139.1211  138.9452  164.9637 C.ar    1  UNL1        0.1540
     28 N         139.5693  140.3665  165.1339 N.ar    1  UNL1       -0.2263
     29 C         138.2510  138.3034  166.0034 C.3     1  UNL1        0.4349
     30 F         137.3808  137.6618  167.0432 F       1  UNL1       -0.1644
     31 F         138.6699  136.9477  165.5173 F       1  UNL1       -0.1644
     32 F         137.8319  139.6593  166.4896 F       1  UNL1       -0.1644
     33 C         138.7505  143.2507  163.0361 C.3     1  UNL1        0.0857
     34 C         137.6231  144.2386  163.0874 C.3     1  UNL1        0.0101
@<TRIPOS>BOND
     1    17    18    1
     2    18    16    1
     3    16    15    1
     4    15    14    1
     5    14    13    1
     6    13     7    1
     7     7     8    1
     8     8     9    1
     9     9    10    1
    10    10     1    1
    11     1    19    1
    12    19    20    1
    13    20    21   am
    14    21    22    2
    15    21    33    1
    16    33    34    1
    17    20    23    1
    18    23    24   ar
    19    24    25   ar
    20    25    26   ar
    21    26    27   ar
    22    27    29    1
    23    29    30    1
    24    29    31    1
    25    29    32    1
    26    27    28   ar
    27     1     2    1
    28     2     3    1
    29     3     4    1
    30     4     5    1
    31     5     6    1
    32    10    11    1
    33    11    12    1
    34    12     7    1
    35     6     1    1
    36    28    23   ar
@<TRIPOS>MOLECULE
*****
 34 36 0 0 0
SMALL
GASTEIGER

@<TRIPOS>ATOM
      1 C         139.9798  139.4122  165.8485 C.3     1  UNL1        0.0690
      2 C         140.4806  139.9558  167.1537 C.3     1  UNL1        0.0485
      3 C         139.6130  139.8906  168.3756 C.3     1  UNL1        0.1436
      4 O         138.2447  139.2819  168.2923 O.3     1  UNL1       -0.3537
      5 C         137.7438  138.7383  166.9871 C.3     1  UNL1        0.1436
      6 C         138.6114  138.8034  165.7651 C.3     1  UNL1        0.0485
      7 N         144.0547  140.8448  164.5863 N.3     1  UNL1       -0.2682
      8 C         143.1089  141.7845  165.2736 C.3     1  UNL1        0.0897
      9 C         141.7506  141.3070  165.6943 C.3     1  UNL1        0.0896
     10 N         141.3381  139.8897  165.4277 N.3     1  UNL1       -0.2710
     11 C         142.2838  138.9500  164.7404 C.3     1  UNL1        0.0896
     12 C         143.6421  139.4275  164.3197 C.3     1  UNL1        0.0897
     13 C         145.4129  141.3223  164.1656 C.3     1  UNL1        0.1046
     14 C         145.5970  141.9765  162.8284 C.3     1  UNL1        0.1594
     15 O         144.4075  142.2465  161.9554 O.3     1  UNL1       -0.3523
     16 C         143.8291  143.6287  161.8824 C.3     1  UNL1        0.1422
     17 C         142.9809  145.1382  163.8193 C.3     1  UNL1        0.0027
     18 C         144.1067  144.6166  162.9764 C.3     1  UNL1        0.0321
     19 C         139.9507  139.0344  164.3971 C.3     1  UNL1        0.1143
     20 N         139.0417  139.7614  163.4509 N.am    1  UNL1       -0.2425
     21 C         138.2584  138.9958  162.4262 C.2     1  UNL1        0.2304
     22 O         138.3840  137.5032  162.3475 O.2     1  UNL1       -0.2745
     23 C         138.9161  141.2541  163.5296 C.ar    1  UNL1        0.1373
     24 C         138.0320  141.8786  164.5682 C.ar    1  UNL1        0.0347
     25 C         137.9064  143.3713  164.6469 C.ar    1  UNL1        0.0044
     26 C         138.6647  144.2394  163.6871 C.ar    1  UNL1        0.0232
     27 C         139.5487  143.6148  162.6485 C.ar    1  UNL1        0.1540
     28 N         139.6744  142.1222  162.5698 N.ar    1  UNL1       -0.2263
     29 C         140.3070  144.4830  161.6887 C.3     1  UNL1        0.4349
     30 F         141.0654  145.3512  160.7288 F       1  UNL1       -0.1644
     31 F         139.9630  145.6907  162.5092 F       1  UNL1       -0.1644
     32 F         140.6511  143.2753  160.8682 F       1  UNL1       -0.1644
     33 C         137.3494  139.7228  161.4800 C.3     1  UNL1        0.0857
     34 C         137.8016  140.0134  160.0797 C.3     1  UNL1        0.0101
@<TRIPOS>BOND
     1    17    18    1
     2    18    16    1
     3    16    15    1
     4    15    14    1
     5    14    13    1
     6    13     7    1
     7     7     8    1
     8     8     9    1
     9     9    10    1
    10    10     1    1
    11     1    19    1
    12    19    20    1
    13    20    21   am
    14    21    22    2
    15    21    33    1
    16    33    34    1
    17    20    23    1
    18    23    24   ar
    19    24    25   ar
    20    25    26   ar
    21    26    27   ar
    22    27    29    1
    23    29    30    1
    24    29    31    1
    25    29    32    1
    26    27    28   ar
    27     1     2    1
    28     2     3    1
    29     3     4    1
    30     4     5    1
    31     5     6    1
    32    10    11    1
    33    11    12    1
    34    12     7    1
    35     6     1    1
    36    28    23   ar
@<TRIPOS>MOLECULE
*****
 34 36 0 0 0
SMALL
GASTEIGER

@<TRIPOS>ATOM
      1 C         139.0388  139.9010  164.6056 C.3     1  UNL1        0.0690
      2 C         138.8356  139.6454  163.1415 C.3     1  UNL1        0.0485
      3 C         138.6900  138.2396  162.6387 C.3     1  UNL1        0.1436
      4 O         138.7477  137.0896  163.5999 O.3     1  UNL1       -0.3537
      5 C         138.9509  137.3452  165.0639 C.3     1  UNL1        0.1436
      6 C         139.0965  138.7509  165.5668 C.3     1  UNL1        0.0485
      7 N         139.0827  144.1273  163.0609 N.3     1  UNL1       -0.2682
      8 C         140.0155  143.1066  162.4796 C.3     1  UNL1        0.0897
      9 C         140.0008  141.6978  162.9944 C.3     1  UNL1        0.0896
     10 N         139.0534  141.3098  164.0907 N.3     1  UNL1       -0.2710
     11 C         138.1207  142.3305  164.6721 C.3     1  UNL1        0.0896
     12 C         138.1353  143.7393  164.1572 C.3     1  UNL1        0.0897
     13 C         139.0974  145.5361  162.5460 C.3     1  UNL1        0.1046
     14 C         140.0802  145.9371  161.4863 C.3     1  UNL1        0.1594
     15 O         139.8607  145.5185  160.0627 O.3     1  UNL1       -0.3523
     16 C         141.0337  145.3320  159.1464 C.3     1  UNL1        0.1422
     17 C         142.9005  143.8061  158.1788 C.3     1  UNL1        0.0027
     18 C         141.8348  144.0651  159.2021 C.3     1  UNL1        0.0321
     19 C         139.2471  140.6459  165.8908 C.3     1  UNL1        0.1143
     20 N         140.5711  140.5754  166.5923 N.am    1  UNL1       -0.2425
     21 C         140.6365  140.1522  168.0299 C.2     1  UNL1        0.2304
     22 O         139.3780  139.7994  168.7659 O.2     1  UNL1       -0.2745
     23 C         141.8296  140.9282  165.8563 C.ar    1  UNL1        0.1373
     24 C         142.6859  139.8439  165.2723 C.ar    1  UNL1        0.0347
     25 C         143.9444  140.1967  164.5363 C.ar    1  UNL1        0.0044
     26 C         144.3465  141.6337  164.3843 C.ar    1  UNL1        0.0232
     27 C         143.4902  142.7180  164.9683 C.ar    1  UNL1        0.1540
     28 N         142.2317  142.3652  165.7043 N.ar    1  UNL1       -0.2263
     29 C         143.8924  144.1550  164.8162 C.3     1  UNL1        0.4349
     30 F         144.2948  145.5921  164.6642 F       1  UNL1       -0.1644
     31 F         142.8722  144.3258  163.7300 F       1  UNL1       -0.1644
     32 F         144.9128  143.9844  165.9025 F       1  UNL1       -0.1644
     33 C         141.9604  140.0817  168.7315 C.3     1  UNL1        0.0857
     34 C         142.1372  139.1708  169.9100 C.3     1  UNL1        0.0101
@<TRIPOS>BOND
     1    17    18    1
     2    18    16    1
     3    16    15    1
     4    15    14    1
     5    14    13    1
     6    13     7    1
     7     7     8    1
     8     8     9    1
     9     9    10    1
    10    10     1    1
    11     1    19    1
    12    19    20    1
    13    20    21   am
    14    21    22    2
    15    21    33    1
    16    33    34    1
    17    20    23    1
    18    23    24   ar
    19    24    25   ar
    20    25    26   ar
    21    26    27   ar
    22    27    29    1
    23    29    30    1
    24    29    31    1
    25    29    32    1
    26    27    28   ar
    27     1     2    1
    28     2     3    1
    29     3     4    1
    30     4     5    1
    31     5     6    1
    32    10    11    1
    33    11    12    1
    34    12     7    1
    35     6     1    1
    36    28    23   ar
@<TRIPOS>MOLECULE
*****
 34 36 0 0 0
SMALL
GASTEIGER

@<TRIPOS>ATOM
      1 C         140.1721  139.6210  164.4685 C.3     1  UNL1        0.0690
      2 C         140.9984  138.3765  164.6048 C.3     1  UNL1        0.0485
      3 C         141.2857  137.5313  163.3992 C.3     1  UNL1        0.1436
      4 O         140.7469  137.9307  162.0576 O.3     1  UNL1       -0.3537
      5 C         139.9207  139.1752  161.9213 C.3     1  UNL1        0.1436
      6 C         139.6333  140.0203  163.1269 C.3     1  UNL1        0.0485
      7 N         141.0315  139.7330  168.8843 N.3     1  UNL1       -0.2682
      8 C         139.6425  139.9970  168.3836 C.3     1  UNL1        0.0897
      9 C         139.3560  139.9596  166.9117 C.3     1  UNL1        0.0896
     10 N         140.4586  139.6583  165.9404 N.3     1  UNL1       -0.2710
     11 C         141.8477  139.3943  166.4411 C.3     1  UNL1        0.0896
     12 C         142.1342  139.4317  167.9130 C.3     1  UNL1        0.0897
     13 C         141.3180  139.7703  170.3562 C.3     1  UNL1        0.1046
     14 C         140.4574  140.5947  171.2671 C.3     1  UNL1        0.1594
     15 O         140.7860  142.0387  171.5057 O.3     1  UNL1       -0.3523
     16 C         141.4368  142.8485  170.4236 C.3     1  UNL1        0.1422
     17 C         143.8674  142.3253  169.6697 C.3     1  UNL1        0.0027
     18 C         142.9072  143.1390  170.4856 C.3     1  UNL1        0.0321
     19 C         139.4454  140.8784  164.8435 C.3     1  UNL1        0.1143
     20 N         140.0307  142.2151  164.4956 N.am    1  UNL1       -0.2425
     21 C         139.1305  143.3482  164.1012 C.2     1  UNL1        0.2304
     22 O         137.6451  143.1449  164.0547 O.2     1  UNL1       -0.2745
     23 C         141.5161  142.4184  164.5421 C.ar    1  UNL1        0.1373
     24 C         142.2020  142.6392  165.8577 C.ar    1  UNL1        0.0347
     25 C         143.6874  142.8426  165.9042 C.ar    1  UNL1        0.0044
     26 C         144.4869  142.8251  164.6352 C.ar    1  UNL1        0.0232
     27 C         143.8010  142.6043  163.3196 C.ar    1  UNL1        0.1540
     28 N         142.3155  142.4010  163.2731 N.ar    1  UNL1       -0.2263
     29 C         144.6005  142.5869  162.0506 C.3     1  UNL1        0.4349
     30 F         145.4001  142.5696  160.7815 F       1  UNL1       -0.1644
     31 F         144.4177  141.1011  161.9557 F       1  UNL1       -0.1644
     32 F         144.7834  144.0728  162.1454 F       1  UNL1       -0.1644
     33 C         139.7157  144.6848  163.7533 C.3     1  UNL1        0.0857
     34 C         139.8709  145.0845  162.3160 C.3     1  UNL1        0.0101
@<TRIPOS>BOND
     1    17    18    1
     2    18    16    1
     3    16    15    1
     4    15    14    1
     5    14    13    1
     6    13     7    1
     7     7     8    1
     8     8     9    1
     9     9    10    1
    10    10     1    1
    11     1    19    1
    12    19    20    1
    13    20    21   am
    14    21    22    2
    15    21    33    1
    16    33    34    1
    17    20    23    1
    18    23    24   ar
    19    24    25   ar
    20    25    26   ar
    21    26    27   ar
    22    27    29    1
    23    29    30    1
    24    29    31    1
    25    29    32    1
    26    27    28   ar
    27     1     2    1
    28     2     3    1
    29     3     4    1
    30     4     5    1
    31     5     6    1
    32    10    11    1
    33    11    12    1
    34    12     7    1
    35     6     1    1
    36    28    23   ar
@<TRIPOS>MOLECULE
*****
 34 36 0 0 0
SMALL
GASTEIGER

@<TRIPOS>ATOM
      1 C         142.8801  140.4865  164.0545 C.3     1  UNL1        0.0690
      2 C         144.1747  141.2314  164.1928 C.3     1  UNL1        0.0485
      3 C         144.9879  141.5546  162.9745 C.3     1  UNL1        0.1436
      4 O         144.5065  141.1330  161.6179 O.3     1  UNL1       -0.3537
      5 C         143.2118  140.3882  161.4796 C.3     1  UNL1        0.1436
      6 C         142.3987  140.0649  162.6979 C.3     1  UNL1        0.0485
      7 N         142.9887  141.0424  168.5187 N.3     1  UNL1       -0.2682
      8 C         142.7732  139.6763  167.9380 C.3     1  UNL1        0.0897
      9 C         142.7370  139.4910  166.4500 C.3     1  UNL1        0.0896
     10 N         142.9163  140.6718  165.5426 N.3     1  UNL1       -0.2710
     11 C         143.1318  142.0379  166.1232 C.3     1  UNL1        0.0896
     12 C         143.1680  142.2232  167.6113 C.3     1  UNL1        0.0897
     13 C         143.0249  141.2277  170.0068 C.3     1  UNL1        0.1046
     14 C         142.5357  142.5085  170.6152 C.3     1  UNL1        0.1594
     15 O         141.1193  142.6171  171.0968 O.3     1  UNL1       -0.3523
     16 C         139.9867  142.5594  170.1149 C.3     1  UNL1        0.1422
     17 C         139.3672  140.2615  169.0729 C.3     1  UNL1        0.0027
     18 C         139.0972  141.3526  170.0661 C.3     1  UNL1        0.0321
     19 C         141.5980  139.8060  164.4330 C.3     1  UNL1        0.1143
     20 N         140.2837  140.3985  164.0186 N.am    1  UNL1       -0.2425
     21 C         139.2301  139.5279  163.4007 C.2     1  UNL1        0.2304
     22 O         139.4907  138.0648  163.1972 O.2     1  UNL1       -0.2745
     23 C         140.0232  141.8616  164.2222 C.ar    1  UNL1        0.1373
     24 C         139.5378  142.3591  165.5515 C.ar    1  UNL1        0.0347
     25 C         139.2772  143.8222  165.7551 C.ar    1  UNL1        0.0044
     26 C         139.5020  144.7877  164.6295 C.ar    1  UNL1        0.0232
     27 C         139.9873  144.2903  163.3002 C.ar    1  UNL1        0.1540
     28 N         140.2479  142.8272  163.0966 N.ar    1  UNL1       -0.2263
     29 C         140.2120  145.2559  162.1746 C.3     1  UNL1        0.4349
     30 F         140.4368  146.2216  161.0489 F       1  UNL1       -0.1644
     31 F         138.7745  145.6776  162.2492 F       1  UNL1       -0.1644
     32 F         141.6496  144.8343  162.0999 F       1  UNL1       -0.1644
     33 C         137.9158  140.1203  162.9864 C.3     1  UNL1        0.0857
     34 C         137.6933  140.5283  161.5602 C.3     1  UNL1        0.0101
@<TRIPOS>BOND
     1    17    18    1
     2    18    16    1
     3    16    15    1
     4    15    14    1
     5    14    13    1
     6    13     7    1
     7     7     8    1
     8     8     9    1
     9     9    10    1
    10    10     1    1
    11     1    19    1
    12    19    20    1
    13    20    21   am
    14    21    22    2
    15    21    33    1
    16    33    34    1
    17    20    23    1
    18    23    24   ar
    19    24    25   ar
    20    25    26   ar
    21    26    27   ar
    22    27    29    1
    23    29    30    1
    24    29    31    1
    25    29    32    1
    26    27    28   ar
    27     1     2    1
    28     2     3    1
    29     3     4    1
    30     4     5    1
    31     5     6    1
    32    10    11    1
    33    11    12    1
    34    12     7    1
    35     6     1    1
    36    28    23   ar
@<TRIPOS>MOLECULE
*****
 34 36 0 0 0
SMALL
GASTEIGER

@<TRIPOS>ATOM
      1 C         141.9027  139.4746  164.3242 C.3     1  UNL1        0.0690
      2 C         143.2436  140.0491  164.6732 C.3     1  UNL1        0.0485
      3 C         144.4598  139.6408  163.8959 C.3     1  UNL1        0.1436
      4 O         144.3351  138.6580  162.7696 O.3     1  UNL1       -0.3537
      5 C         142.9941  138.0835  162.4207 C.3     1  UNL1        0.1436
      6 C         141.7779  138.4918  163.1980 C.3     1  UNL1        0.0485
      7 N         140.7396  142.1469  167.7529 N.3     1  UNL1       -0.2682
      8 C         141.6940  142.6415  166.7068 C.3     1  UNL1        0.0897
      9 C         142.0816  141.7508  165.5639 C.3     1  UNL1        0.0896
     10 N         141.5150  140.3654  165.4671 N.3     1  UNL1       -0.2710
     11 C         140.5606  139.8707  166.5132 C.3     1  UNL1        0.0896
     12 C         140.1729  140.7614  167.6561 C.3     1  UNL1        0.0897
     13 C         140.3519  143.0376  168.8958 C.3     1  UNL1        0.1046
     14 C         140.0118  142.4413  170.2295 C.3     1  UNL1        0.1594
     15 O         141.0838  142.2509  171.2613 O.3     1  UNL1       -0.3523
     16 C         142.0176  141.0808  171.1653 C.3     1  UNL1        0.1422
     17 C         143.9024  142.2987  169.8561 C.3     1  UNL1        0.0027
     18 C         143.0934  141.0636  170.1201 C.3     1  UNL1        0.0321
     19 C         140.4271  139.2095  164.3722 C.3     1  UNL1        0.1143
     20 N         139.5110  139.8888  163.3978 N.am    1  UNL1       -0.2425
     21 C         138.5332  139.0796  162.5984 C.2     1  UNL1        0.2304
     22 O         138.4714  137.5911  162.7733 O.2     1  UNL1       -0.2745
     23 C         139.5727  141.3772  163.2229 C.ar    1  UNL1        0.1373
     24 C         140.2129  141.9627  161.9991 C.ar    1  UNL1        0.0347
     25 C         140.2746  143.4512  161.8242 C.ar    1  UNL1        0.0044
     26 C         139.6962  144.3542  162.8729 C.ar    1  UNL1        0.0232
     27 C         139.0560  143.7687  164.0967 C.ar    1  UNL1        0.1540
     28 N         138.9943  142.2803  164.2716 N.ar    1  UNL1       -0.2263
     29 C         138.4776  144.6719  165.1454 C.3     1  UNL1        0.4349
     30 F         137.8993  145.5751  166.1942 F       1  UNL1       -0.1644
     31 F         137.1091  144.1292  164.8581 F       1  UNL1       -0.1644
     32 F         139.8462  145.2146  165.4328 F       1  UNL1       -0.1644
     33 C         137.6171  139.7588  161.6240 C.3     1  UNL1        0.0857
     34 C         137.9436  139.7555  160.1600 C.3     1  UNL1        0.0101
@<TRIPOS>BOND
     1    17    18    1
     2    18    16    1
     3    16    15    1
     4    15    14    1
     5    14    13    1
     6    13     7    1
     7     7     8    1
     8     8     9    1
     9     9    10    1
    10    10     1    1
    11     1    19    1
    12    19    20    1
    13    20    21   am
    14    21    22    2
    15    21    33    1
    16    33    34    1
    17    20    23    1
    18    23    24   ar
    19    24    25   ar
    20    25    26   ar
    21    26    27   ar
    22    27    29    1
    23    29    30    1
    24    29    31    1
    25    29    32    1
    26    27    28   ar
    27     1     2    1
    28     2     3    1
    29     3     4    1
    30     4     5    1
    31     5     6    1
    32    10    11    1
    33    11    12    1
    34    12     7    1
    35     6     1    1
    36    28    23   ar
