@<TRIPOS>MOLECULE
*****
 22 25 0 0 0
SMALL
GASTEIGER

@<TRIPOS>ATOM
      1 N         142.3368  139.4062  165.2668 N.ar    1  UNL1       -0.3206
      2 C         141.7919  139.8655  166.5867 C.ar    1  UNL1        0.0762
      3 C         142.3744  141.2154  166.8842 C.ar    1  UNL1        0.0188
      4 C         143.2792  141.5904  165.7481 C.ar    1  UNL1        0.0203
      5 C         144.1213  142.8056  165.4946 C.ar    1  UNL1        0.0222
      6 C         144.9401  142.9026  164.2416 C.ar    1  UNL1        0.0990
      7 N         144.9168  141.7845  163.2420 N.ar    1  UNL1       -0.2408
      8 C         144.0747  140.5693  163.4954 C.ar    1  UNL1        0.1160
      9 C         143.2560  140.4723  164.7485 C.ar    1  UNL1        0.0796
     10 C         142.1002  142.0448  168.1036 C.ar    1  UNL1        0.0046
     11 C         140.7664  142.7096  168.2741 C.ar    1  UNL1        0.0207
     12 C         140.4922  143.5389  169.4936 C.ar    1  UNL1        0.0989
     13 N         141.5518  143.7035  170.5425 N.ar    1  UNL1       -0.2423
     14 C         142.8855  143.0386  170.3719 C.ar    1  UNL1        0.0989
     15 C         143.1597  142.2093  169.1525 C.ar    1  UNL1        0.0207
     16 C         142.0183  138.1087  164.5849 C.3     1  UNL1        0.1328
     17 C         139.0086  138.0036  161.2411 C.ar    1  UNL1       -0.0000
     18 C         140.4563  138.2549  160.9395 C.ar    1  UNL1       -0.0003
     19 C         141.4596  138.2899  162.0540 C.ar    1  UNL1       -0.0024
     20 C         141.0151  138.0737  163.4702 C.ar    1  UNL1        0.0004
     21 C         139.5674  137.8224  163.7718 C.ar    1  UNL1       -0.0024
     22 C         138.5641  137.7873  162.6573 C.ar    1  UNL1       -0.0003
@<TRIPOS>BOND
     1    17    18   ar
     2    18    19   ar
     3    19    20   ar
     4    20    16    1
     5    16     1    1
     6     1     2   ar
     7     2     3   ar
     8     3    10    1
     9    10    11   ar
    10    11    12   ar
    11    12    13   ar
    12    13    14   ar
    13    14    15   ar
    14     3     4   ar
    15     4     5   ar
    16     5     6   ar
    17     6     7   ar
    18     7     8   ar
    19     8     9   ar
    20    20    21   ar
    21    21    22   ar
    22    22    17   ar
    23     9     1   ar
    24    15    10   ar
    25     9     4   ar
@<TRIPOS>MOLECULE
*****
 22 25 0 0 0
SMALL
GASTEIGER

@<TRIPOS>ATOM
      1 N         142.4667  139.3367  165.8287 N.ar    1  UNL1       -0.3206
      2 C         142.6511  140.1005  167.1064 C.ar    1  UNL1        0.0762
      3 C         141.3081  140.2430  167.7591 C.ar    1  UNL1        0.0188
      4 C         140.2937  139.5672  166.8848 C.ar    1  UNL1        0.0203
      5 C         138.8106  139.3896  167.0210 C.ar    1  UNL1        0.0222
      6 C         138.0435  138.6518  165.9640 C.ar    1  UNL1        0.0990
      7 N         138.7596  138.0917  164.7709 N.ar    1  UNL1       -0.2408
      8 C         140.2427  138.2693  164.6348 C.ar    1  UNL1        0.1160
      9 C         141.0098  139.0071  165.6917 C.ar    1  UNL1        0.0796
     10 C         141.0285  140.9390  169.0581 C.ar    1  UNL1        0.0046
     11 C         140.4024  142.3022  169.0590 C.ar    1  UNL1        0.0207
     12 C         140.1228  142.9982  170.3580 C.ar    1  UNL1        0.0989
     13 N         140.4693  142.3312  171.6561 N.ar    1  UNL1       -0.2423
     14 C         141.0955  140.9681  171.6552 C.ar    1  UNL1        0.0989
     15 C         141.3750  140.2721  170.3562 C.ar    1  UNL1        0.0207
     16 C         143.5493  138.9672  164.8583 C.3     1  UNL1        0.1328
     17 C         145.0384  142.0009  161.8868 C.ar    1  UNL1       -0.0000
     18 C         145.7465  141.8245  163.1974 C.ar    1  UNL1       -0.0003
     19 C         145.2502  140.8133  164.1879 C.ar    1  UNL1       -0.0024
     20 C         144.0457  139.9785  163.8678 C.ar    1  UNL1        0.0004
     21 C         143.3376  140.1550  162.5572 C.ar    1  UNL1       -0.0024
     22 C         143.8340  141.1661  161.5667 C.ar    1  UNL1       -0.0003
@<TRIPOS>BOND
     1    17    18   ar
     2    18    19   ar
     3    19    20   ar
     4    20    16    1
     5    16     1    1
     6     1     2   ar
     7     2     3   ar
     8     3    10    1
     9    10    11   ar
    10    11    12   ar
    11    12    13   ar
    12    13    14   ar
    13    14    15   ar
    14     3     4   ar
    15     4     5   ar
    16     5     6   ar
    17     6     7   ar
    18     7     8   ar
    19     8     9   ar
    20    20    21   ar
    21    21    22   ar
    22    22    17   ar
    23     9     1   ar
    24    15    10   ar
    25     9     4   ar
@<TRIPOS>MOLECULE
*****
 22 25 0 0 0
SMALL
GASTEIGER

@<TRIPOS>ATOM
      1 N         138.4567  141.8557  164.1034 N.ar    1  UNL1       -0.3206
      2 C         139.1457  141.9675  165.4311 C.ar    1  UNL1        0.0762
      3 C         139.6177  140.5993  165.8249 C.ar    1  UNL1        0.0188
      4 C         139.2204  139.6419  164.7407 C.ar    1  UNL1        0.0203
      5 C         139.4193  138.1633  164.5849 C.ar    1  UNL1        0.0222
      6 C         138.9006  137.4613  163.3650 C.ar    1  UNL1        0.0990
      7 N         138.1831  138.2378  162.3010 N.ar    1  UNL1       -0.2408
      8 C         137.9841  139.7164  162.4569 C.ar    1  UNL1        0.1160
      9 C         138.5028  140.4184  163.6767 C.ar    1  UNL1        0.0796
     10 C         140.3573  140.2498  167.0823 C.ar    1  UNL1        0.0046
     11 C         141.7934  139.8219  167.0135 C.ar    1  UNL1        0.0207
     12 C         142.5329  139.4724  168.2708 C.ar    1  UNL1        0.0989
     13 N         141.8364  139.5507  169.5970 N.ar    1  UNL1       -0.2423
     14 C         140.4004  139.9786  169.6658 C.ar    1  UNL1        0.0989
     15 C         139.6609  140.3281  168.4084 C.ar    1  UNL1        0.0207
     16 C         137.8313  142.9832  163.3369 C.3     1  UNL1        0.1328
     17 C         140.3426  145.4852  160.5650 C.ar    1  UNL1       -0.0000
     18 C         139.9724  144.0830  160.1816 C.ar    1  UNL1       -0.0003
     19 C         139.1353  143.2490  161.1055 C.ar    1  UNL1       -0.0024
     20 C         138.6684  143.8172  162.4129 C.ar    1  UNL1        0.0004
     21 C         139.0386  145.2193  162.7962 C.ar    1  UNL1       -0.0024
     22 C         139.8757  146.0533  161.8723 C.ar    1  UNL1       -0.0003
@<TRIPOS>BOND
     1    17    18   ar
     2    18    19   ar
     3    19    20   ar
     4    20    16    1
     5    16     1    1
     6     1     2   ar
     7     2     3   ar
     8     3    10    1
     9    10    11   ar
    10    11    12   ar
    11    12    13   ar
    12    13    14   ar
    13    14    15   ar
    14     3     4   ar
    15     4     5   ar
    16     5     6   ar
    17     6     7   ar
    18     7     8   ar
    19     8     9   ar
    20    20    21   ar
    21    21    22   ar
    22    22    17   ar
    23     9     1   ar
    24    15    10   ar
    25     9     4   ar
@<TRIPOS>MOLECULE
*****
 22 25 0 0 0
SMALL
GASTEIGER

@<TRIPOS>ATOM
      1 N         142.8608  142.2655  164.9013 N.ar    1  UNL1       -0.3206
      2 C         142.5712  141.7515  166.2804 C.ar    1  UNL1        0.0762
      3 C         141.2513  142.3146  166.7172 C.ar    1  UNL1        0.0188
      4 C         140.7251  143.1765  165.6081 C.ar    1  UNL1        0.0203
      5 C         139.4687  143.9850  165.4751 C.ar    1  UNL1        0.0222
      6 C         139.2071  144.7633  164.2198 C.ar    1  UNL1        0.0990
      7 N         140.2018  144.7330  163.0974 N.ar    1  UNL1       -0.2408
      8 C         141.4582  143.9244  163.2304 C.ar    1  UNL1        0.1160
      9 C         141.7198  143.1462  164.4857 C.ar    1  UNL1        0.0796
     10 C         140.5761  142.0603  168.0323 C.ar    1  UNL1        0.0046
     11 C         139.9301  140.7331  168.2995 C.ar    1  UNL1        0.0207
     12 C         139.2549  140.4788  169.6146 C.ar    1  UNL1        0.0989
     13 N         139.2256  141.5517  170.6625 N.ar    1  UNL1       -0.2423
     14 C         139.8716  142.8788  170.3952 C.ar    1  UNL1        0.0989
     15 C         140.5468  143.1331  169.0801 C.ar    1  UNL1        0.0207
     16 C         144.0776  141.9536  164.0815 C.3     1  UNL1        0.1328
     17 C         143.8451  138.9059  160.7788 C.ar    1  UNL1       -0.0000
     18 C         143.8532  140.3694  160.4497 C.ar    1  UNL1       -0.0003
     19 C         143.9307  141.3853  161.5506 C.ar    1  UNL1       -0.0024
     20 C         144.0001  140.9377  162.9806 C.ar    1  UNL1        0.0004
     21 C         143.9920  139.4742  163.3096 C.ar    1  UNL1       -0.0024
     22 C         143.9145  138.4583  162.2088 C.ar    1  UNL1       -0.0003
@<TRIPOS>BOND
     1    17    18   ar
     2    18    19   ar
     3    19    20   ar
     4    20    16    1
     5    16     1    1
     6     1     2   ar
     7     2     3   ar
     8     3    10    1
     9    10    11   ar
    10    11    12   ar
    11    12    13   ar
    12    13    14   ar
    13    14    15   ar
    14     3     4   ar
    15     4     5   ar
    16     5     6   ar
    17     6     7   ar
    18     7     8   ar
    19     8     9   ar
    20    20    21   ar
    21    21    22   ar
    22    22    17   ar
    23     9     1   ar
    24    15    10   ar
    25     9     4   ar
@<TRIPOS>MOLECULE
*****
 22 25 0 0 0
SMALL
GASTEIGER

@<TRIPOS>ATOM
      1 N         141.1554  141.7609  164.8716 N.ar    1  UNL1       -0.3206
      2 C         141.4239  142.3073  166.2425 C.ar    1  UNL1        0.0762
      3 C         140.6235  141.5059  167.2258 C.ar    1  UNL1        0.0188
      4 C         139.8603  140.4642  166.4628 C.ar    1  UNL1        0.0203
      5 C         138.9085  139.3925  166.9048 C.ar    1  UNL1        0.0222
      6 C         138.2855  138.4783  165.8919 C.ar    1  UNL1        0.0990
      7 N         138.6142  138.6359  164.4369 N.ar    1  UNL1       -0.2408
      8 C         139.5660  139.7076  163.9948 C.ar    1  UNL1        0.1160
      9 C         140.1891  140.6217  165.0077 C.ar    1  UNL1        0.0796
     10 C         140.5918  141.7104  168.7115 C.ar    1  UNL1        0.0046
     11 C         140.1868  143.0393  169.2773 C.ar    1  UNL1        0.0207
     12 C         140.1551  143.2438  170.7629 C.ar    1  UNL1        0.0989
     13 N         140.5283  142.1194  171.6829 N.ar    1  UNL1       -0.2423
     14 C         140.9333  140.7905  171.1171 C.ar    1  UNL1        0.0989
     15 C         140.9651  140.5860  169.6315 C.ar    1  UNL1        0.0207
     16 C         141.7491  142.2650  163.5896 C.3     1  UNL1        0.1328
     17 C         139.9213  145.8091  161.5043 C.ar    1  UNL1       -0.0000
     18 C         139.3277  145.3050  162.7863 C.ar    1  UNL1       -0.0003
     19 C         139.9369  144.1237  163.4814 C.ar    1  UNL1       -0.0024
     20 C         141.1398  143.4464  162.8945 C.ar    1  UNL1        0.0004
     21 C         141.7334  143.9506  161.6125 C.ar    1  UNL1       -0.0024
     22 C         141.1242  145.1319  160.9174 C.ar    1  UNL1       -0.0003
@<TRIPOS>BOND
     1    17    18   ar
     2    18    19   ar
     3    19    20   ar
     4    20    16    1
     5    16     1    1
     6     1     2   ar
     7     2     3   ar
     8     3    10    1
     9    10    11   ar
    10    11    12   ar
    11    12    13   ar
    12    13    14   ar
    13    14    15   ar
    14     3     4   ar
    15     4     5   ar
    16     5     6   ar
    17     6     7   ar
    18     7     8   ar
    19     8     9   ar
    20    20    21   ar
    21    21    22   ar
    22    22    17   ar
    23     9     1   ar
    24    15    10   ar
    25     9     4   ar
@<TRIPOS>MOLECULE
*****
 22 25 0 0 0
SMALL
GASTEIGER

@<TRIPOS>ATOM
      1 N         139.4341  140.3776  166.4173 N.ar    1  UNL1       -0.3206
      2 C         139.7433  141.8153  166.1217 C.ar    1  UNL1        0.0762
      3 C         139.7417  141.9929  164.6322 C.ar    1  UNL1        0.0188
      4 C         139.4315  140.6650  164.0074 C.ar    1  UNL1        0.0203
      5 C         139.2976  140.2360  162.5763 C.ar    1  UNL1        0.0222
      6 C         138.9736  138.8086  162.2486 C.ar    1  UNL1        0.0990
      7 N         138.7834  137.8102  163.3518 N.ar    1  UNL1       -0.2408
      8 C         138.9173  138.2393  164.7829 C.ar    1  UNL1        0.1160
      9 C         139.2413  139.6667  165.1106 C.ar    1  UNL1        0.0796
     10 C         140.0043  143.2736  163.8967 C.ar    1  UNL1        0.0046
     11 C         141.3770  143.8783  163.9101 C.ar    1  UNL1        0.0207
     12 C         141.6396  145.1590  163.1746 C.ar    1  UNL1        0.0989
     13 N         140.5295  145.8350  162.4258 N.ar    1  UNL1       -0.2423
     14 C         139.1569  145.2303  162.4124 C.ar    1  UNL1        0.0989
     15 C         138.8943  143.9496  163.1479 C.ar    1  UNL1        0.0207
     16 C         139.3349  139.7594  167.7804 C.3     1  UNL1        0.1328
     17 C         141.9710  141.2329  171.1165 C.ar    1  UNL1       -0.0000
     18 C         140.5719  141.7559  170.9794 C.ar    1  UNL1       -0.0003
     19 C         139.6932  141.2648  169.8674 C.ar    1  UNL1       -0.0024
     20 C         140.2136  140.2506  168.8925 C.ar    1  UNL1        0.0004
     21 C         141.6128  139.7276  169.0296 C.ar    1  UNL1       -0.0024
     22 C         142.4915  140.2187  170.1416 C.ar    1  UNL1       -0.0003
@<TRIPOS>BOND
     1    17    18   ar
     2    18    19   ar
     3    19    20   ar
     4    20    16    1
     5    16     1    1
     6     1     2   ar
     7     2     3   ar
     8     3    10    1
     9    10    11   ar
    10    11    12   ar
    11    12    13   ar
    12    13    14   ar
    13    14    15   ar
    14     3     4   ar
    15     4     5   ar
    16     5     6   ar
    17     6     7   ar
    18     7     8   ar
    19     8     9   ar
    20    20    21   ar
    21    21    22   ar
    22    22    17   ar
    23     9     1   ar
    24    15    10   ar
    25     9     4   ar
@<TRIPOS>MOLECULE
*****
 22 25 0 0 0
SMALL
GASTEIGER

@<TRIPOS>ATOM
      1 N         141.4063  140.5565  164.6172 N.ar    1  UNL1       -0.3206
      2 C         140.4906  141.5333  163.9410 C.ar    1  UNL1        0.0762
      3 C         141.3299  142.4514  163.1028 C.ar    1  UNL1        0.0188
      4 C         142.7642  142.0421  163.2610 C.ar    1  UNL1        0.0203
      5 C         144.0334  142.5844  162.6737 C.ar    1  UNL1        0.0222
      6 C         145.3498  141.9556  163.0224 C.ar    1  UNL1        0.0990
      7 N         145.3970  140.7844  163.9584 N.ar    1  UNL1       -0.2408
      8 C         144.1279  140.2421  164.5457 C.ar    1  UNL1        0.1160
      9 C         142.8115  140.8709  164.1970 C.ar    1  UNL1        0.0796
     10 C         140.8237  143.5807  162.2552 C.ar    1  UNL1        0.0046
     11 C         140.4773  144.8963  162.8874 C.ar    1  UNL1        0.0207
     12 C         139.9711  146.0256  162.0398 C.ar    1  UNL1        0.0989
     13 N         139.8113  145.8394  160.5600 N.ar    1  UNL1       -0.2423
     14 C         140.1576  144.5240  159.9278 C.ar    1  UNL1        0.0989
     15 C         140.6638  143.3947  160.7754 C.ar    1  UNL1        0.0207
     16 C         140.9899  139.4580  165.5500 C.3     1  UNL1        0.1328
     17 C         140.6778  140.2553  169.9679 C.ar    1  UNL1       -0.0000
     18 C         139.4434  140.2605  169.1157 C.ar    1  UNL1       -0.0003
     19 C         139.5473  139.9948  167.6432 C.ar    1  UNL1       -0.0024
     20 C         140.8859  139.7238  167.0227 C.ar    1  UNL1        0.0004
     21 C         142.1203  139.7185  167.8748 C.ar    1  UNL1       -0.0024
     22 C         142.0163  139.9843  169.3474 C.ar    1  UNL1       -0.0003
@<TRIPOS>BOND
     1    17    18   ar
     2    18    19   ar
     3    19    20   ar
     4    20    16    1
     5    16     1    1
     6     1     2   ar
     7     2     3   ar
     8     3    10    1
     9    10    11   ar
    10    11    12   ar
    11    12    13   ar
    12    13    14   ar
    13    14    15   ar
    14     3     4   ar
    15     4     5   ar
    16     5     6   ar
    17     6     7   ar
    18     7     8   ar
    19     8     9   ar
    20    20    21   ar
    21    21    22   ar
    22    22    17   ar
    23     9     1   ar
    24    15    10   ar
    25     9     4   ar
@<TRIPOS>MOLECULE
*****
 22 25 0 0 0
SMALL
GASTEIGER

@<TRIPOS>ATOM
      1 N         140.8617  141.3102  165.2641 N.ar    1  UNL1       -0.3206
      2 C         141.0253  142.6286  164.5677 C.ar    1  UNL1        0.0762
      3 C         140.2322  142.5822  163.2954 C.ar    1  UNL1        0.0188
      4 C         139.5784  141.2352  163.2054 C.ar    1  UNL1        0.0203
      5 C         138.6792  140.6229  162.1728 C.ar    1  UNL1        0.0222
      6 C         138.1690  139.2244  162.3570 C.ar    1  UNL1        0.0990
      7 N         138.5581  138.4382  163.5737 N.ar    1  UNL1       -0.2408
      8 C         139.4573  139.0505  164.6064 C.ar    1  UNL1        0.1160
      9 C         139.9675  140.4490  164.4222 C.ar    1  UNL1        0.0796
     10 C         140.1136  143.6886  162.2895 C.ar    1  UNL1        0.0046
     11 C         140.3811  143.4155  160.8390 C.ar    1  UNL1        0.0207
     12 C         140.2625  144.5219  159.8331 C.ar    1  UNL1        0.0989
     13 N         139.8764  145.9015  160.2777 N.ar    1  UNL1       -0.2423
     14 C         139.6089  146.1746  161.7282 C.ar    1  UNL1        0.0989
     15 C         139.7275  145.0682  162.7340 C.ar    1  UNL1        0.0207
     16 C         141.4833  140.9212  166.5727 C.3     1  UNL1        0.1328
     17 C         139.6204  142.2748  170.4389 C.ar    1  UNL1       -0.0000
     18 C         139.3640  140.8881  169.9279 C.ar    1  UNL1       -0.0003
     19 C         139.9849  140.4368  168.6392 C.ar    1  UNL1       -0.0024
     20 C         140.8623  141.3724  167.8615 C.ar    1  UNL1        0.0004
     21 C         141.1187  142.7592  168.3725 C.ar    1  UNL1       -0.0024
     22 C         140.4978  143.2104  169.6612 C.ar    1  UNL1       -0.0003
@<TRIPOS>BOND
     1    17    18   ar
     2    18    19   ar
     3    19    20   ar
     4    20    16    1
     5    16     1    1
     6     1     2   ar
     7     2     3   ar
     8     3    10    1
     9    10    11   ar
    10    11    12   ar
    11    12    13   ar
    12    13    14   ar
    13    14    15   ar
    14     3     4   ar
    15     4     5   ar
    16     5     6   ar
    17     6     7   ar
    18     7     8   ar
    19     8     9   ar
    20    20    21   ar
    21    21    22   ar
    22    22    17   ar
    23     9     1   ar
    24    15    10   ar
    25     9     4   ar
@<TRIPOS>MOLECULE
*****
 22 25 0 0 0
SMALL
GASTEIGER

@<TRIPOS>ATOM
      1 N         140.0469  141.7488  164.9295 N.ar    1  UNL1       -0.3206
      2 C         140.0170  142.3731  166.2931 C.ar    1  UNL1        0.0762
      3 C         140.9993  141.6417  167.1593 C.ar    1  UNL1        0.0188
      4 C         141.6362  140.5655  166.3310 C.ar    1  UNL1        0.0203
      5 C         142.6762  139.5338  166.6537 C.ar    1  UNL1        0.0222
      6 C         143.1275  138.5683  165.5982 C.ar    1  UNL1        0.0990
      7 N         142.5388  138.6344  164.2201 N.ar    1  UNL1       -0.2408
      8 C         141.4989  139.6661  163.8975 C.ar    1  UNL1        0.1160
      9 C         141.0476  140.6316  164.9529 C.ar    1  UNL1        0.0796
     10 C         141.2931  141.9351  168.6007 C.ar    1  UNL1        0.0046
     11 C         142.6283  142.4934  168.9954 C.ar    1  UNL1        0.0207
     12 C         142.9220  142.7868  170.4368 C.ar    1  UNL1        0.0989
     13 N         141.8807  142.5219  171.4835 N.ar    1  UNL1       -0.2423
     14 C         140.5456  141.9637  171.0887 C.ar    1  UNL1        0.0989
     15 C         140.2518  141.6703  169.6473 C.ar    1  UNL1        0.0207
     16 C         139.2210  142.1680  163.7496 C.3     1  UNL1        0.1328
     17 C         140.6626  145.4699  161.0534 C.ar    1  UNL1       -0.0000
     18 C         139.6997  145.7739  162.1626 C.ar    1  UNL1       -0.0003
     19 C         139.2191  144.6733  163.0613 C.ar    1  UNL1       -0.0024
     20 C         139.7016  143.2687  162.8508 C.ar    1  UNL1        0.0004
     21 C         140.6645  142.9648  161.7417 C.ar    1  UNL1       -0.0024
     22 C         141.1451  144.0653  160.8429 C.ar    1  UNL1       -0.0003
@<TRIPOS>BOND
     1    17    18   ar
     2    18    19   ar
     3    19    20   ar
     4    20    16    1
     5    16     1    1
     6     1     2   ar
     7     2     3   ar
     8     3    10    1
     9    10    11   ar
    10    11    12   ar
    11    12    13   ar
    12    13    14   ar
    13    14    15   ar
    14     3     4   ar
    15     4     5   ar
    16     5     6   ar
    17     6     7   ar
    18     7     8   ar
    19     8     9   ar
    20    20    21   ar
    21    21    22   ar
    22    22    17   ar
    23     9     1   ar
    24    15    10   ar
    25     9     4   ar
