@<TRIPOS>MOLECULE
*****
 34 38 0 0 0
SMALL
GASTEIGER

@<TRIPOS>ATOM
      1 N         140.1621  138.8837  161.5567 N.3     1  UNL1       -0.2672
      2 C         140.1291  138.2964  162.9366 C.3     1  UNL1        0.0940
      3 C         141.3427  138.3758  163.8146 C.3     1  UNL1        0.1107
      4 N         142.5892  139.0424  163.3128 N.am    1  UNL1       -0.2764
      5 C         143.8027  139.1217  164.1909 C.2     1  UNL1        0.2302
      6 O         145.0492  139.7883  163.6892 O.2     1  UNL1       -0.2745
      7 C         142.6222  139.6296  161.9330 C.3     1  UNL1        0.1107
      8 C         141.4087  139.5503  161.0549 C.3     1  UNL1        0.0940
      9 C         138.9486  138.8043  160.6786 C.3     1  UNL1        0.1125
     10 C         137.8085  139.7565  160.8871 C.3     1  UNL1        0.1988
     11 F         136.4916  139.5087  160.2130 F       1  UNL1       -0.2309
     12 C         139.1388  142.2231  159.8165 C.3     1  UNL1        0.0306
     13 C         138.6504  142.1898  161.2344 C.ar    1  UNL1       -0.0235
     14 C         137.9852  140.9564  161.7697 C.ar    1  UNL1        0.0071
     15 C         137.4969  140.9231  163.1875 C.ar    1  UNL1       -0.0017
     16 C         137.6736  142.1230  164.0701 C.ar    1  UNL1        0.0060
     17 C         138.3387  143.3563  163.5348 C.ar    1  UNL1        0.0748
     18 C         138.8271  143.3897  162.1170 C.ar    1  UNL1        0.0234
     19 C         139.4403  144.7360  161.8695 C.3     1  UNL1        0.2352
     20 O         139.3309  145.5347  163.1344 O.3     1  UNL1       -0.4404
     21 C         138.6501  144.6820  164.1637 C.2     1  UNL1        0.3413
     22 O         138.3358  145.0844  165.5741 O.2     1  UNL1       -0.2449
     23 C         143.7698  138.5344  165.5708 C.3     1  UNL1        0.1131
     24 C         143.0946  139.2766  166.6859 C.ar    1  UNL1        0.0062
     25 C         143.0265  138.6711  168.0565 C.ar    1  UNL1        0.0009
     26 C         142.3514  139.4132  169.1716 C.ar    1  UNL1        0.0386
     27 C         141.7444  140.7609  168.9161 C.ar    1  UNL1        0.1672
     28 N         141.8126  141.3664  167.5454 N.ar    1  UNL1       -0.2252
     29 C         142.4877  140.6243  166.4303 C.ar    1  UNL1        0.0968
     30 N         141.0693  141.5031  170.0311 N.ar    1  UNL1       -0.1708
     31 C         140.0173  142.5611  169.8761 C.ar    1  UNL1        0.2272
     32 N         139.6255  143.0294  171.2462 N.ar    1  UNL1       -0.1044
     33 N         140.4353  142.2609  172.2479 N.ar    1  UNL1       -0.0222
     34 N         141.3276  141.3176  171.4970 N.ar    1  UNL1       -0.0371
@<TRIPOS>BOND
     1    12    13    1
     2    13    14   ar
     3    14    10    1
     4    10    11    1
     5    10     9    1
     6     9     1    1
     7     1     2    1
     8     2     3    1
     9     3     4    1
    10     4     5   am
    11     5     6    2
    12     5    23    1
    13    23    24    1
    14    24    25   ar
    15    25    26   ar
    16    26    27   ar
    17    27    30    1
    18    30    31   ar
    19    31    32   ar
    20    32    33   ar
    21    33    34   ar
    22    27    28   ar
    23    28    29   ar
    24     4     7    1
    25     7     8    1
    26    14    15   ar
    27    15    16   ar
    28    16    17   ar
    29    17    18   ar
    30    18    19    1
    31    19    20    1
    32    20    21    1
    33    21    22    2
    34    18    13   ar
    35     8     1    1
    36    21    17    1
    37    29    24   ar
    38    34    30   ar
@<TRIPOS>MOLECULE
*****
 34 38 0 0 0
SMALL
GASTEIGER

@<TRIPOS>ATOM
      1 N         139.6647  142.2758  160.9656 N.3     1  UNL1       -0.2672
      2 C         138.7858  142.1791  162.1773 C.3     1  UNL1        0.0940
      3 C         138.6924  140.8879  162.9349 C.3     1  UNL1        0.1107
      4 N         139.4779  139.6934  162.4809 N.am    1  UNL1       -0.2764
      5 C         139.3844  138.4022  163.2386 C.2     1  UNL1        0.2302
      6 O         140.1699  137.2077  162.7846 O.2     1  UNL1       -0.2745
      7 C         140.3568  139.7900  161.2692 C.3     1  UNL1        0.1107
      8 C         140.4503  141.0812  160.5115 C.3     1  UNL1        0.0940
      9 C         139.7582  143.5669  160.2079 C.3     1  UNL1        0.1125
     10 C         140.9147  144.4926  160.4433 C.3     1  UNL1        0.1988
     11 F         141.1569  145.6425  159.5110 F       1  UNL1       -0.2309
     12 C         143.3316  142.7411  160.1412 C.3     1  UNL1        0.0306
     13 C         143.0377  143.3927  161.4599 C.ar    1  UNL1       -0.0235
     14 C         141.8292  144.2685  161.6110 C.ar    1  UNL1        0.0071
     15 C         141.5353  144.9200  162.9297 C.ar    1  UNL1       -0.0017
     16 C         142.4498  144.6958  164.0974 C.ar    1  UNL1        0.0060
     17 C         143.6582  143.8201  163.9464 C.ar    1  UNL1        0.0748
     18 C         143.9521  143.1685  162.6276 C.ar    1  UNL1        0.0234
     19 C         145.2086  142.3632  162.7783 C.3     1  UNL1        0.2352
     20 O         145.6912  142.5171  164.1902 O.3     1  UNL1       -0.4404
     21 C         144.7330  143.4175  164.9121 C.2     1  UNL1        0.3413
     22 O         144.8322  143.8409  166.3477 O.2     1  UNL1       -0.2449
     23 C         138.5055  138.3055  164.4503 C.3     1  UNL1        0.1131
     24 C         138.9604  138.8887  165.7553 C.ar    1  UNL1        0.0062
     25 C         140.3208  139.5111  165.8649 C.ar    1  UNL1        0.0009
     26 C         140.7758  140.0943  167.1698 C.ar    1  UNL1        0.0386
     27 C         139.8704  140.0551  168.3651 C.ar    1  UNL1        0.1672
     28 N         138.5100  139.4327  168.2555 N.ar    1  UNL1       -0.2252
     29 C         138.0550  138.8495  166.9506 C.ar    1  UNL1        0.0968
     30 N         140.3253  140.6383  169.6702 N.ar    1  UNL1       -0.1708
     31 C         141.5826  140.2799  170.4056 C.ar    1  UNL1        0.2272
     32 N         141.6370  141.1025  171.6587 N.ar    1  UNL1       -0.1044
     33 N         140.4133  141.9692  171.6978 N.ar    1  UNL1       -0.0222
     34 N         139.6027  141.6823  170.4688 N.ar    1  UNL1       -0.0371
@<TRIPOS>BOND
     1    12    13    1
     2    13    14   ar
     3    14    10    1
     4    10    11    1
     5    10     9    1
     6     9     1    1
     7     1     2    1
     8     2     3    1
     9     3     4    1
    10     4     5   am
    11     5     6    2
    12     5    23    1
    13    23    24    1
    14    24    25   ar
    15    25    26   ar
    16    26    27   ar
    17    27    30    1
    18    30    31   ar
    19    31    32   ar
    20    32    33   ar
    21    33    34   ar
    22    27    28   ar
    23    28    29   ar
    24     4     7    1
    25     7     8    1
    26    14    15   ar
    27    15    16   ar
    28    16    17   ar
    29    17    18   ar
    30    18    19    1
    31    19    20    1
    32    20    21    1
    33    21    22    2
    34    18    13   ar
    35     8     1    1
    36    21    17    1
    37    29    24   ar
    38    34    30   ar
@<TRIPOS>MOLECULE
*****
 34 38 0 0 0
SMALL
GASTEIGER

@<TRIPOS>ATOM
      1 N         142.0888  142.2889  166.8196 N.3     1  UNL1       -0.2672
      2 C         140.8511  142.8792  166.2117 C.3     1  UNL1        0.0940
      3 C         140.9403  143.6498  164.9279 C.3     1  UNL1        0.1107
      4 N         142.2672  143.8302  164.2521 N.am    1  UNL1       -0.2764
      5 C         142.3564  144.6008  162.9683 C.2     1  UNL1        0.2302
      6 O         143.6833  144.7812  162.2924 O.2     1  UNL1       -0.2745
      7 C         143.5050  143.2399  164.8600 C.3     1  UNL1        0.1107
      8 C         143.4158  142.4692  166.1438 C.3     1  UNL1        0.0940
      9 C         141.9997  141.5182  168.1034 C.3     1  UNL1        0.1125
     10 C         141.5303  140.0936  168.0919 C.3     1  UNL1        0.1988
     11 F         141.6708  139.2477  169.3226 F       1  UNL1       -0.2309
     12 C         143.2692  138.7336  166.0605 C.3     1  UNL1        0.0306
     13 C         141.7899  138.8349  165.8339 C.ar    1  UNL1       -0.0235
     14 C         140.9204  139.5149  166.8496 C.ar    1  UNL1        0.0071
     15 C         139.4411  139.6162  166.6231 C.ar    1  UNL1       -0.0017
     16 C         138.8312  139.0375  165.3809 C.ar    1  UNL1        0.0060
     17 C         139.7006  138.3575  164.3652 C.ar    1  UNL1        0.0748
     18 C         141.1799  138.2562  164.5917 C.ar    1  UNL1        0.0234
     19 C         141.7796  137.5338  163.4219 C.3     1  UNL1        0.2352
     20 O         140.6709  137.1886  162.4724 O.3     1  UNL1       -0.4404
     21 C         139.3860  137.6977  163.0554 C.2     1  UNL1        0.3413
     22 O         138.0254  137.5694  162.4371 O.2     1  UNL1       -0.2449
     23 C         141.1187  145.1911  162.3603 C.3     1  UNL1        0.1131
     24 C         140.3494  144.4210  161.3283 C.ar    1  UNL1        0.0062
     25 C         140.8094  144.4142  159.9005 C.ar    1  UNL1        0.0009
     26 C         140.0402  143.6441  158.8685 C.ar    1  UNL1        0.0386
     27 C         138.8110  142.8808  159.2641 C.ar    1  UNL1        0.1672
     28 N         138.3510  142.8877  160.6918 N.ar    1  UNL1       -0.2252
     29 C         139.1202  143.6578  161.7239 C.ar    1  UNL1        0.0968
     30 N         138.0416  142.1107  158.2320 N.ar    1  UNL1       -0.1708
     31 C         137.5046  142.6576  156.9426 C.ar    1  UNL1        0.2272
     32 N         136.8054  141.5433  156.2220 N.ar    1  UNL1       -0.1044
     33 N         136.9102  140.3077  157.0660 N.ar    1  UNL1       -0.0222
     34 N         137.6742  140.6584  158.3083 N.ar    1  UNL1       -0.0371
@<TRIPOS>BOND
     1    12    13    1
     2    13    14   ar
     3    14    10    1
     4    10    11    1
     5    10     9    1
     6     9     1    1
     7     1     2    1
     8     2     3    1
     9     3     4    1
    10     4     5   am
    11     5     6    2
    12     5    23    1
    13    23    24    1
    14    24    25   ar
    15    25    26   ar
    16    26    27   ar
    17    27    30    1
    18    30    31   ar
    19    31    32   ar
    20    32    33   ar
    21    33    34   ar
    22    27    28   ar
    23    28    29   ar
    24     4     7    1
    25     7     8    1
    26    14    15   ar
    27    15    16   ar
    28    16    17   ar
    29    17    18   ar
    30    18    19    1
    31    19    20    1
    32    20    21    1
    33    21    22    2
    34    18    13   ar
    35     8     1    1
    36    21    17    1
    37    29    24   ar
    38    34    30   ar
@<TRIPOS>MOLECULE
*****
 34 38 0 0 0
SMALL
GASTEIGER

@<TRIPOS>ATOM
      1 N         142.5168  141.5389  160.9469 N.3     1  UNL1       -0.2672
      2 C         143.1423  141.5048  162.3099 C.3     1  UNL1        0.0940
      3 C         142.9004  140.3349  163.2169 C.3     1  UNL1        0.1107
      4 N         142.0332  139.1991  162.7611 N.am    1  UNL1       -0.2764
      5 C         141.7915  138.0292  163.6682 C.2     1  UNL1        0.2302
      6 O         140.9243  136.8933  163.2123 O.2     1  UNL1       -0.2745
      7 C         141.4078  139.2331  161.3981 C.3     1  UNL1        0.1107
      8 C         141.6495  140.4031  160.4910 C.3     1  UNL1        0.0940
      9 C         142.7585  142.7088  160.0399 C.3     1  UNL1        0.1125
     10 C         141.9700  143.9722  160.2189 C.3     1  UNL1        0.1988
     11 F         141.9757  145.0185  159.1441 F       1  UNL1       -0.2309
     12 C         139.1132  143.0670  160.3604 C.3     1  UNL1        0.0306
     13 C         139.7473  143.7366  161.5435 C.ar    1  UNL1       -0.0235
     14 C         141.1757  144.1892  161.4728 C.ar    1  UNL1        0.0071
     15 C         141.8097  144.8587  162.6558 C.ar    1  UNL1       -0.0017
     16 C         141.0155  145.0758  163.9096 C.ar    1  UNL1        0.0060
     17 C         139.5871  144.6232  163.9804 C.ar    1  UNL1        0.0748
     18 C         138.9530  143.9536  162.7973 C.ar    1  UNL1        0.0234
     19 C         137.5367  143.6173  163.1590 C.3     1  UNL1        0.2352
     20 O         137.2954  144.0791  164.5656 O.3     1  UNL1       -0.4404
     21 C         138.5627  144.7008  165.0733 C.2     1  UNL1        0.3413
     22 O         138.7691  145.2955  166.4347 O.2     1  UNL1       -0.2449
     23 C         142.4169  137.9950  165.0312 C.3     1  UNL1        0.1131
     24 C         141.9476  138.9419  166.0956 C.ar    1  UNL1        0.0062
     25 C         142.8506  139.2885  167.2421 C.ar    1  UNL1        0.0009
     26 C         142.3814  140.2354  168.3066 C.ar    1  UNL1        0.0386
     27 C         141.0091  140.8356  168.2247 C.ar    1  UNL1        0.1672
     28 N         140.1061  140.4889  167.0782 N.ar    1  UNL1       -0.2252
     29 C         140.5754  139.5420  166.0137 C.ar    1  UNL1        0.0968
     30 N         140.5398  141.7825  169.2892 N.ar    1  UNL1       -0.1708
     31 C         140.3890  143.2678  169.1440 C.ar    1  UNL1        0.2272
     32 N         139.8949  143.8135  170.4509 N.ar    1  UNL1       -0.1044
     33 N         139.7403  142.6654  171.4038 N.ar    1  UNL1       -0.0222
     34 N         140.1388  141.4103  170.6859 N.ar    1  UNL1       -0.0371
@<TRIPOS>BOND
     1    12    13    1
     2    13    14   ar
     3    14    10    1
     4    10    11    1
     5    10     9    1
     6     9     1    1
     7     1     2    1
     8     2     3    1
     9     3     4    1
    10     4     5   am
    11     5     6    2
    12     5    23    1
    13    23    24    1
    14    24    25   ar
    15    25    26   ar
    16    26    27   ar
    17    27    30    1
    18    30    31   ar
    19    31    32   ar
    20    32    33   ar
    21    33    34   ar
    22    27    28   ar
    23    28    29   ar
    24     4     7    1
    25     7     8    1
    26    14    15   ar
    27    15    16   ar
    28    16    17   ar
    29    17    18   ar
    30    18    19    1
    31    19    20    1
    32    20    21    1
    33    21    22    2
    34    18    13   ar
    35     8     1    1
    36    21    17    1
    37    29    24   ar
    38    34    30   ar
@<TRIPOS>MOLECULE
*****
 34 38 0 0 0
SMALL
GASTEIGER

@<TRIPOS>ATOM
      1 N         142.2079  142.0836  159.7178 N.3     1  UNL1       -0.2672
      2 C         141.8828  140.8661  160.5313 C.3     1  UNL1        0.0940
      3 C         142.7845  140.4535  161.6568 C.3     1  UNL1        0.1107
      4 N         144.0111  141.2584  161.9688 N.am    1  UNL1       -0.2764
      5 C         144.9127  140.8458  163.0944 C.2     1  UNL1        0.2302
      6 O         146.1394  141.6507  163.4063 O.2     1  UNL1       -0.2745
      7 C         144.3362  142.4760  161.1552 C.3     1  UNL1        0.1107
      8 C         143.4347  142.8886  160.0297 C.3     1  UNL1        0.0940
      9 C         141.3064  142.4963  158.5922 C.3     1  UNL1        0.1125
     10 C         140.0896  143.3276  158.8722 C.3     1  UNL1        0.1988
     11 F         139.2906  143.8940  157.7360 F       1  UNL1       -0.2309
     12 C         138.2660  141.4075  160.2821 C.3     1  UNL1        0.0306
     13 C         138.7599  142.6324  160.9933 C.ar    1  UNL1       -0.0235
     14 C         139.6718  143.5925  160.2883 C.ar    1  UNL1        0.0071
     15 C         140.1657  144.8173  160.9994 C.ar    1  UNL1       -0.0017
     16 C         139.7479  145.0822  162.4154 C.ar    1  UNL1        0.0060
     17 C         138.8361  144.1222  163.1204 C.ar    1  UNL1        0.0748
     18 C         138.3421  142.8973  162.4094 C.ar    1  UNL1        0.0234
     19 C         137.4594  142.1371  163.3543 C.3     1  UNL1        0.2352
     20 O         137.4079  142.8922  164.6493 O.3     1  UNL1       -0.4404
     21 C         138.2587  144.1190  164.5048 C.2     1  UNL1        0.3413
     22 O         138.4913  145.1599  165.5595 O.2     1  UNL1       -0.2449
     23 C         144.5877  139.6282  163.9080 C.3     1  UNL1        0.1131
     24 C         143.7488  139.7548  165.1450 C.ar    1  UNL1        0.0062
     25 C         143.7282  138.6450  166.1539 C.ar    1  UNL1        0.0009
     26 C         142.8893  138.7715  167.3909 C.ar    1  UNL1        0.0386
     27 C         142.0710  140.0078  167.6190 C.ar    1  UNL1        0.1672
     28 N         142.0916  141.1175  166.6100 N.ar    1  UNL1       -0.2252
     29 C         142.9305  140.9910  165.3730 C.ar    1  UNL1        0.0968
     30 N         141.2320  140.1344  168.8561 N.ar    1  UNL1       -0.1708
     31 C         141.7084  140.5973  170.2009 C.ar    1  UNL1        0.2272
     32 N         140.5401  140.5693  171.1413 N.ar    1  UNL1       -0.1044
     33 N         139.3418  140.0889  170.3776 N.ar    1  UNL1       -0.0222
     34 N         139.7694  139.8202  168.9653 N.ar    1  UNL1       -0.0371
@<TRIPOS>BOND
     1    12    13    1
     2    13    14   ar
     3    14    10    1
     4    10    11    1
     5    10     9    1
     6     9     1    1
     7     1     2    1
     8     2     3    1
     9     3     4    1
    10     4     5   am
    11     5     6    2
    12     5    23    1
    13    23    24    1
    14    24    25   ar
    15    25    26   ar
    16    26    27   ar
    17    27    30    1
    18    30    31   ar
    19    31    32   ar
    20    32    33   ar
    21    33    34   ar
    22    27    28   ar
    23    28    29   ar
    24     4     7    1
    25     7     8    1
    26    14    15   ar
    27    15    16   ar
    28    16    17   ar
    29    17    18   ar
    30    18    19    1
    31    19    20    1
    32    20    21    1
    33    21    22    2
    34    18    13   ar
    35     8     1    1
    36    21    17    1
    37    29    24   ar
    38    34    30   ar
@<TRIPOS>MOLECULE
*****
 34 38 0 0 0
SMALL
GASTEIGER

@<TRIPOS>ATOM
      1 N         138.7065  141.0405  160.2381 N.3     1  UNL1       -0.2672
      2 C         137.8567  140.9335  161.4695 C.3     1  UNL1        0.0940
      3 C         138.1468  139.8742  162.4912 C.3     1  UNL1        0.1107
      4 N         139.2867  138.9221  162.2815 N.am    1  UNL1       -0.2764
      5 C         139.5767  137.8629  163.3032 C.2     1  UNL1        0.2302
      6 O         140.7166  136.9107  163.0935 O.2     1  UNL1       -0.2745
      7 C         140.1365  139.0291  161.0501 C.3     1  UNL1        0.1107
      8 C         139.8465  140.0883  160.0284 C.3     1  UNL1        0.0940
      9 C         138.4165  142.0997  159.2164 C.3     1  UNL1        0.1125
     10 C         139.4111  143.1947  158.9682 C.3     1  UNL1        0.1988
     11 F         139.4038  143.9328  157.6624 F       1  UNL1       -0.2309
     12 C         142.2439  142.2347  158.7361 C.3     1  UNL1        0.0306
     13 C         141.8295  143.0717  159.9098 C.ar    1  UNL1       -0.0235
     14 C         140.4131  143.5518  160.0260 C.ar    1  UNL1        0.0071
     15 C         139.9987  144.3887  161.1996 C.ar    1  UNL1       -0.0017
     16 C         141.0006  144.7457  162.2573 C.ar    1  UNL1        0.0060
     17 C         142.4169  144.2658  162.1413 C.ar    1  UNL1        0.0748
     18 C         142.8314  143.4288  160.9675 C.ar    1  UNL1        0.0234
     19 C         144.2874  143.1026  161.1218 C.3     1  UNL1        0.2352
     20 O         144.7727  143.7380  162.3909 O.3     1  UNL1       -0.4404
     21 C         143.6168  144.4569  163.0210 C.2     1  UNL1        0.3413
     22 O         143.6541  145.2310  164.3053 O.2     1  UNL1       -0.2449
     23 C         138.7269  137.7558  164.5347 C.3     1  UNL1        0.1131
     24 C         139.0842  138.5392  165.7629 C.ar    1  UNL1        0.0062
     25 C         140.4034  139.2485  165.8426 C.ar    1  UNL1        0.0009
     26 C         140.7608  140.0320  167.0708 C.ar    1  UNL1        0.0386
     27 C         139.7988  140.1061  168.2193 C.ar    1  UNL1        0.1672
     28 N         138.4795  139.3968  168.1396 N.ar    1  UNL1       -0.2252
     29 C         138.1222  138.6133  166.9114 C.ar    1  UNL1        0.0968
     30 N         140.1561  140.8896  169.4476 N.ar    1  UNL1       -0.1708
     31 C         140.8352  142.2267  169.4740 C.ar    1  UNL1        0.2272
     32 N         140.9957  142.6369  170.9078 N.ar    1  UNL1       -0.1044
     33 N         140.4157  141.5532  171.7676 N.ar    1  UNL1       -0.0222
     34 N         139.8968  140.4733  170.8651 N.ar    1  UNL1       -0.0371
@<TRIPOS>BOND
     1    12    13    1
     2    13    14   ar
     3    14    10    1
     4    10    11    1
     5    10     9    1
     6     9     1    1
     7     1     2    1
     8     2     3    1
     9     3     4    1
    10     4     5   am
    11     5     6    2
    12     5    23    1
    13    23    24    1
    14    24    25   ar
    15    25    26   ar
    16    26    27   ar
    17    27    30    1
    18    30    31   ar
    19    31    32   ar
    20    32    33   ar
    21    33    34   ar
    22    27    28   ar
    23    28    29   ar
    24     4     7    1
    25     7     8    1
    26    14    15   ar
    27    15    16   ar
    28    16    17   ar
    29    17    18   ar
    30    18    19    1
    31    19    20    1
    32    20    21    1
    33    21    22    2
    34    18    13   ar
    35     8     1    1
    36    21    17    1
    37    29    24   ar
    38    34    30   ar
@<TRIPOS>MOLECULE
*****
 34 38 0 0 0
SMALL
GASTEIGER

@<TRIPOS>ATOM
      1 N         141.7572  140.6020  166.6304 N.3     1  UNL1       -0.2672
      2 C         142.2424  141.9212  166.1066 C.3     1  UNL1        0.0940
      3 C         141.2757  142.8790  165.4757 C.3     1  UNL1        0.1107
      4 N         139.8238  142.5176  165.3686 N.am    1  UNL1       -0.2764
      5 C         138.8571  143.4755  164.7377 C.2     1  UNL1        0.2302
      6 O         137.4053  143.1141  164.6305 O.2     1  UNL1       -0.2745
      7 C         139.3386  141.1984  165.8923 C.3     1  UNL1        0.1107
      8 C         140.3053  140.2406  166.5233 C.3     1  UNL1        0.0940
      9 C         142.7239  139.6442  167.2613 C.3     1  UNL1        0.1125
     10 C         143.3975  138.5979  166.4238 C.3     1  UNL1        0.1988
     11 F         144.0161  137.3978  167.0773 F       1  UNL1       -0.2309
     12 C         141.3161  137.2911  164.7032 C.3     1  UNL1        0.0306
     13 C         142.4118  138.0983  164.0723 C.ar    1  UNL1       -0.0235
     14 C         143.4526  138.7517  164.9326 C.ar    1  UNL1        0.0071
     15 C         144.5482  139.5588  164.3018 C.ar    1  UNL1       -0.0017
     16 C         144.6033  139.7126  162.8108 C.ar    1  UNL1        0.0060
     17 C         143.5626  139.0593  161.9505 C.ar    1  UNL1        0.0748
     18 C         142.4669  138.2521  162.5813 C.ar    1  UNL1        0.0234
     19 C         141.5870  137.7283  161.4851 C.3     1  UNL1        0.2352
     20 O         142.1390  138.2118  160.1768 O.3     1  UNL1       -0.4404
     21 C         143.3600  139.0344  160.4644 C.2     1  UNL1        0.3413
     22 O         144.2262  139.7129  159.4450 O.2     1  UNL1       -0.2449
     23 C         139.3423  144.7947  164.2138 C.3     1  UNL1        0.1131
     24 C         139.7228  144.9341  162.7697 C.ar    1  UNL1        0.0062
     25 C         140.3204  143.7703  162.0359 C.ar    1  UNL1        0.0009
     26 C         140.7011  143.9096  160.5917 C.ar    1  UNL1        0.0386
     27 C         140.4841  145.2127  159.8813 C.ar    1  UNL1        0.1672
     28 N         139.8865  146.3766  160.6151 N.ar    1  UNL1       -0.2252
     29 C         139.5059  146.2373  162.0592 C.ar    1  UNL1        0.0968
     30 N         140.8647  145.3522  158.4370 N.ar    1  UNL1       -0.1708
     31 C         139.9926  145.0290  157.2602 C.ar    1  UNL1        0.2272
     32 N         140.7732  145.3164  156.0120 N.ar    1  UNL1       -0.1044
     33 N         142.1277  145.8172  156.4175 N.ar    1  UNL1       -0.0222
     34 N         142.1843  145.8393  157.9162 N.ar    1  UNL1       -0.0371
@<TRIPOS>BOND
     1    12    13    1
     2    13    14   ar
     3    14    10    1
     4    10    11    1
     5    10     9    1
     6     9     1    1
     7     1     2    1
     8     2     3    1
     9     3     4    1
    10     4     5   am
    11     5     6    2
    12     5    23    1
    13    23    24    1
    14    24    25   ar
    15    25    26   ar
    16    26    27   ar
    17    27    30    1
    18    30    31   ar
    19    31    32   ar
    20    32    33   ar
    21    33    34   ar
    22    27    28   ar
    23    28    29   ar
    24     4     7    1
    25     7     8    1
    26    14    15   ar
    27    15    16   ar
    28    16    17   ar
    29    17    18   ar
    30    18    19    1
    31    19    20    1
    32    20    21    1
    33    21    22    2
    34    18    13   ar
    35     8     1    1
    36    21    17    1
    37    29    24   ar
    38    34    30   ar
@<TRIPOS>MOLECULE
*****
 34 38 0 0 0
SMALL
GASTEIGER

@<TRIPOS>ATOM
      1 N         140.2589  139.0973  159.9952 N.3     1  UNL1       -0.2672
      2 C         140.4475  138.4752  161.3470 C.3     1  UNL1        0.0940
      3 C         139.6241  138.9441  162.5098 C.3     1  UNL1        0.1107
      4 N         138.6121  140.0351  162.3208 N.am    1  UNL1       -0.2764
      5 C         137.7887  140.5039  163.4836 C.2     1  UNL1        0.2302
      6 O         136.7767  141.5949  163.2946 O.2     1  UNL1       -0.2745
      7 C         138.4235  140.6571  160.9689 C.3     1  UNL1        0.1107
      8 C         139.2469  140.1883  159.8061 C.3     1  UNL1        0.0940
      9 C         141.0822  138.6284  158.8324 C.3     1  UNL1        0.1125
     10 C         142.4644  139.1726  158.6242 C.3     1  UNL1        0.1988
     11 F         143.3325  138.6181  157.5338 F       1  UNL1       -0.2309
     12 C         144.0924  138.5069  161.0546 C.3     1  UNL1        0.0306
     13 C         143.7927  139.9385  160.7218 C.ar    1  UNL1       -0.0235
     14 C         142.9787  140.2714  159.5065 C.ar    1  UNL1        0.0071
     15 C         142.6789  141.7028  159.1737 C.ar    1  UNL1       -0.0017
     16 C         143.1931  142.8015  160.0560 C.ar    1  UNL1        0.0060
     17 C         144.0071  142.4687  161.2711 C.ar    1  UNL1        0.0748
     18 C         144.3068  141.0372  161.6040 C.ar    1  UNL1        0.0234
     19 C         145.1288  141.0153  162.8586 C.3     1  UNL1        0.2352
     20 O         145.3370  142.4334  163.3011 O.3     1  UNL1       -0.4404
     21 C         144.6437  143.3316  162.3200 C.2     1  UNL1        0.3413
     22 O         144.5956  144.8297  162.3776 O.2     1  UNL1       -0.2449
     23 C         137.9772  139.8819  164.8355 C.3     1  UNL1        0.1131
     24 C         138.9296  140.4968  165.8178 C.ar    1  UNL1        0.0062
     25 C         139.1499  139.8510  167.1536 C.ar    1  UNL1        0.0009
     26 C         140.1022  140.4658  168.1360 C.ar    1  UNL1        0.0386
     27 C         140.8342  141.7265  167.7825 C.ar    1  UNL1        0.1672
     28 N         140.6139  142.3723  166.4467 N.ar    1  UNL1       -0.2252
     29 C         139.6615  141.7575  165.4644 C.ar    1  UNL1        0.0968
     30 N         141.7866  142.3414  168.7648 N.ar    1  UNL1       -0.1708
     31 C         143.2723  142.1376  168.7985 C.ar    1  UNL1        0.2272
     32 N         143.8243  142.9383  169.9404 N.ar    1  UNL1       -0.1044
     33 N         142.6797  143.6371  170.6125 N.ar    1  UNL1       -0.0222
     34 N         141.4204  143.2681  169.8860 N.ar    1  UNL1       -0.0371
@<TRIPOS>BOND
     1    12    13    1
     2    13    14   ar
     3    14    10    1
     4    10    11    1
     5    10     9    1
     6     9     1    1
     7     1     2    1
     8     2     3    1
     9     3     4    1
    10     4     5   am
    11     5     6    2
    12     5    23    1
    13    23    24    1
    14    24    25   ar
    15    25    26   ar
    16    26    27   ar
    17    27    30    1
    18    30    31   ar
    19    31    32   ar
    20    32    33   ar
    21    33    34   ar
    22    27    28   ar
    23    28    29   ar
    24     4     7    1
    25     7     8    1
    26    14    15   ar
    27    15    16   ar
    28    16    17   ar
    29    17    18   ar
    30    18    19    1
    31    19    20    1
    32    20    21    1
    33    21    22    2
    34    18    13   ar
    35     8     1    1
    36    21    17    1
    37    29    24   ar
    38    34    30   ar
@<TRIPOS>MOLECULE
*****
 34 38 0 0 0
SMALL
GASTEIGER

@<TRIPOS>ATOM
      1 N         143.0360  139.7896  160.1939 N.3     1  UNL1       -0.2672
      2 C         143.6245  139.5120  161.5454 C.3     1  UNL1        0.0940
      3 C         142.7725  138.9151  162.6261 C.3     1  UNL1        0.1107
      4 N         141.3322  138.5957  162.3552 N.am    1  UNL1       -0.2764
      5 C         140.4803  137.9987  163.4359 C.2     1  UNL1        0.2302
      6 O         139.0400  137.6793  163.1651 O.2     1  UNL1       -0.2745
      7 C         140.7437  138.8732  161.0037 C.3     1  UNL1        0.1107
      8 C         141.5956  139.4702  159.9230 C.3     1  UNL1        0.0940
      9 C         143.8878  140.3866  159.1132 C.3     1  UNL1        0.1125
     10 C         144.1368  141.8655  159.0854 C.3     1  UNL1        0.1988
     11 F         145.3672  142.4065  158.4194 F       1  UNL1       -0.2309
     12 C         144.6113  142.8625  161.8749 C.3     1  UNL1        0.0306
     13 C         143.3927  143.3019  161.1185 C.ar    1  UNL1       -0.0235
     14 C         143.1555  142.8034  159.7237 C.ar    1  UNL1        0.0071
     15 C         141.9370  143.2427  158.9673 C.ar    1  UNL1       -0.0017
     16 C         140.9557  144.1806  159.6056 C.ar    1  UNL1        0.0060
     17 C         141.1929  144.6792  161.0003 C.ar    1  UNL1        0.0748
     18 C         142.4114  144.2398  161.7567 C.ar    1  UNL1        0.0234
     19 C         142.3794  144.8927  163.1068 C.3     1  UNL1        0.2352
     20 O         141.1410  145.7356  163.1847 O.3     1  UNL1       -0.4404
     21 C         140.4077  145.6037  161.8828 C.2     1  UNL1        0.3413
     22 O         139.1161  146.2778  161.5261 O.2     1  UNL1       -0.2449
     23 C         141.0687  137.7211  164.7875 C.3     1  UNL1        0.1131
     24 C         141.1951  138.8278  165.7922 C.ar    1  UNL1        0.0062
     25 C         139.9883  139.6297  166.1803 C.ar    1  UNL1        0.0009
     26 C         140.1146  140.7364  167.1849 C.ar    1  UNL1        0.0386
     27 C         141.4476  141.0411  167.8014 C.ar    1  UNL1        0.1672
     28 N         142.6544  140.2392  167.4133 N.ar    1  UNL1       -0.2252
     29 C         142.5281  139.1325  166.4087 C.ar    1  UNL1        0.0968
     30 N         141.5740  142.1479  168.8061 N.ar    1  UNL1       -0.1708
     31 C         140.4996  143.1251  169.1813 C.ar    1  UNL1        0.2272
     32 N         141.0587  144.0527  170.2190 N.ar    1  UNL1       -0.1044
     33 N         142.4785  143.6488  170.4852 N.ar    1  UNL1       -0.0222
     34 N         142.7970  142.4715  169.6120 N.ar    1  UNL1       -0.0371
@<TRIPOS>BOND
     1    12    13    1
     2    13    14   ar
     3    14    10    1
     4    10    11    1
     5    10     9    1
     6     9     1    1
     7     1     2    1
     8     2     3    1
     9     3     4    1
    10     4     5   am
    11     5     6    2
    12     5    23    1
    13    23    24    1
    14    24    25   ar
    15    25    26   ar
    16    26    27   ar
    17    27    30    1
    18    30    31   ar
    19    31    32   ar
    20    32    33   ar
    21    33    34   ar
    22    27    28   ar
    23    28    29   ar
    24     4     7    1
    25     7     8    1
    26    14    15   ar
    27    15    16   ar
    28    16    17   ar
    29    17    18   ar
    30    18    19    1
    31    19    20    1
    32    20    21    1
    33    21    22    2
    34    18    13   ar
    35     8     1    1
    36    21    17    1
    37    29    24   ar
    38    34    30   ar
