@<TRIPOS>MOLECULE
*****
 31 35 0 0 0
SMALL
GASTEIGER

@<TRIPOS>ATOM
      1 C         140.1217  140.4753  168.4266 C.3     1  UNL1        0.0294
      2 C         141.3222  139.8767  169.0980 C.3     1  UNL1        0.0666
      3 S         142.5587  139.5835  168.3012 S.3     1  UNL1       -0.0756
      4 C         142.7384  140.8349  164.6314 C.ar    1  UNL1        0.1740
      5 N         142.3889  139.3903  164.4283 N.ar    1  UNL1       -0.1277
      6 N         142.2791  138.7457  165.7783 N.ar    1  UNL1       -0.1221
      7 C         142.5607  139.7919  166.8158 C.ar    1  UNL1        0.1932
      8 N         142.8445  141.0830  166.1070 N.ar    1  UNL1       -0.2880
      9 C         143.1763  142.3925  166.7592 C.3     1  UNL1        0.1340
     10 C         141.8200  144.4864  160.9296 C.3     1  UNL1        0.0594
     11 C         142.5232  143.5309  161.8475 C.ar    1  UNL1        0.0883
     12 N         144.0045  143.3060  161.9192 N.ar    1  UNL1       -0.2469
     13 C         144.2654  142.2687  162.9709 C.ar    1  UNL1        0.0685
     14 C         145.6102  141.7403  163.3736 C.3     1  UNL1        0.0527
     15 C         142.9453  141.8525  163.5490 C.ar    1  UNL1        0.0799
     16 S         141.8686  142.6326  162.8547 S.2     1  UNL1       -0.0680
     17 C         139.0345  139.5854  167.9013 C.3     1  UNL1        0.0730
     18 N         138.8339  139.4396  166.4219 N.3     1  UNL1       -0.2724
     19 C         138.7952  138.1478  165.6605 C.3     1  UNL1        0.0725
     20 C         138.5742  138.4699  164.2123 C.3     1  UNL1        0.0227
     21 C         138.4763  139.9607  164.0786 C.3     1  UNL1        0.0350
     22 C         138.3158  139.3614  162.7130 C.3     1  UNL1        0.0101
     23 C         138.1187  140.4818  161.7353 C.3     1  UNL1        0.0264
     24 C         138.1575  141.7735  162.4967 C.ar    1  UNL1       -0.0260
     25 C         138.0201  143.2015  162.0584 C.ar    1  UNL1       -0.0037
     26 C         138.1036  144.3074  163.0684 C.ar    1  UNL1        0.0111
     27 C         138.3246  143.9854  164.5166 C.ar    1  UNL1        0.0573
     28 CL        138.4082  145.0913  165.5266 Cl      1  UNL1       -0.0823
     29 C         138.4621  142.5574  164.9549 C.ar    1  UNL1        0.0068
     30 C         138.3785  141.4516  163.9449 C.ar    1  UNL1       -0.0246
     31 C         138.6369  140.5601  165.4443 C.3     1  UNL1        0.0761
@<TRIPOS>BOND
     1    10    11    1
     2    11    12   ar
     3    12    13   ar
     4    13    14    1
     5    13    15   ar
     6    15     4    1
     7     4     5   ar
     8     5     6   ar
     9     6     7   ar
    10     7     3    1
    11     3     2    1
    12     2     1    1
    13     1    17    1
    14    17    18    1
    15    18    19    1
    16    19    20    1
    17    20    21    1
    18    21    22    1
    19    22    23    1
    20    23    24    1
    21    24    25   ar
    22    25    26   ar
    23    26    27   ar
    24    27    28    1
    25    27    29   ar
    26    29    30   ar
    27    21    31    1
    28     7     8   ar
    29     8     9    1
    30    15    16   ar
    31    16    11   ar
    32     8     4   ar
    33    31    18    1
    34    30    21    1
    35    30    24   ar
@<TRIPOS>MOLECULE
*****
 31 35 0 0 0
SMALL
GASTEIGER

@<TRIPOS>ATOM
      1 C         141.0941  145.3415  163.2522 C.3     1  UNL1        0.0294
      2 C         140.7303  145.6292  161.8257 C.3     1  UNL1        0.0666
      3 S         140.1288  144.5516  160.9731 S.3     1  UNL1       -0.0756
      4 C         138.6374  141.3436  162.5701 C.ar    1  UNL1        0.1740
      5 N         137.4453  142.2540  162.5811 N.ar    1  UNL1       -0.1277
      6 N         137.8589  143.5666  161.9842 N.ar    1  UNL1       -0.1221
      7 C         139.3066  143.4673  161.6043 C.ar    1  UNL1        0.1932
      8 N         139.7877  142.0935  161.9664 N.ar    1  UNL1       -0.2880
      9 C         141.1756  141.5627  161.7609 C.3     1  UNL1        0.1340
     10 C         138.6048  137.1583  165.7892 C.3     1  UNL1        0.0594
     11 C         138.6579  138.0075  164.5539 C.ar    1  UNL1        0.0883
     12 N         138.7970  137.5085  163.1462 N.ar    1  UNL1       -0.2469
     13 C         138.8062  138.6975  162.2317 C.ar    1  UNL1        0.0685
     14 C         138.9275  138.6593  160.7371 C.3     1  UNL1        0.0527
     15 C         138.6728  139.9313  163.0743 C.ar    1  UNL1        0.0799
     16 S         138.5812  139.5049  164.5095 S.2     1  UNL1       -0.0680
     17 C         142.5346  145.3250  163.6702 C.3     1  UNL1        0.0730
     18 N         143.3316  144.0586  163.5648 N.3     1  UNL1       -0.2724
     19 C         144.4783  143.8138  162.6293 C.3     1  UNL1        0.0725
     20 C         144.9772  142.4187  162.8628 C.3     1  UNL1        0.0227
     21 C         144.1390  141.8012  163.9427 C.3     1  UNL1        0.0350
     22 C         145.1560  140.7876  163.5088 C.3     1  UNL1        0.0101
     23 C         144.9463  139.5438  164.3205 C.3     1  UNL1        0.0264
     24 C         143.7997  139.7887  165.2560 C.ar    1  UNL1       -0.0260
     25 C         143.1454  138.9214  166.2904 C.ar    1  UNL1       -0.0037
     26 C         141.9922  139.4494  167.0912 C.ar    1  UNL1        0.0111
     27 C         141.4932  140.8445  166.8577 C.ar    1  UNL1        0.0573
     28 CL        140.3399  141.3724  167.6586 Cl      1  UNL1       -0.0823
     29 C         142.1475  141.7117  165.8234 C.ar    1  UNL1        0.0068
     30 C         143.3007  141.1838  165.0225 C.ar    1  UNL1       -0.0246
     31 C         143.1219  142.8148  164.3766 C.3     1  UNL1        0.0761
@<TRIPOS>BOND
     1    10    11    1
     2    11    12   ar
     3    12    13   ar
     4    13    14    1
     5    13    15   ar
     6    15     4    1
     7     4     5   ar
     8     5     6   ar
     9     6     7   ar
    10     7     3    1
    11     3     2    1
    12     2     1    1
    13     1    17    1
    14    17    18    1
    15    18    19    1
    16    19    20    1
    17    20    21    1
    18    21    22    1
    19    22    23    1
    20    23    24    1
    21    24    25   ar
    22    25    26   ar
    23    26    27   ar
    24    27    28    1
    25    27    29   ar
    26    29    30   ar
    27    21    31    1
    28     7     8   ar
    29     8     9    1
    30    15    16   ar
    31    16    11   ar
    32     8     4   ar
    33    31    18    1
    34    30    21    1
    35    30    24   ar
@<TRIPOS>MOLECULE
*****
 31 35 0 0 0
SMALL
GASTEIGER

@<TRIPOS>ATOM
      1 C         139.6936  141.1043  168.6370 C.3     1  UNL1        0.0294
      2 C         140.9183  141.9236  168.3559 C.3     1  UNL1        0.0666
      3 S         142.2764  141.2910  168.4271 S.3     1  UNL1       -0.0756
      4 C         143.2585  139.3657  165.2030 C.ar    1  UNL1        0.1740
      5 N         143.5022  138.3201  166.2507 N.ar    1  UNL1       -0.1277
      6 N         143.1640  138.9141  167.5859 N.ar    1  UNL1       -0.1221
      7 C         142.7112  140.3267  167.3635 C.ar    1  UNL1        0.1932
      8 N         142.7696  140.6058  165.8909 N.ar    1  UNL1       -0.2880
      9 C         142.4034  141.8982  165.2232 C.3     1  UNL1        0.1340
     10 C         142.7622  137.7007  160.2168 C.3     1  UNL1        0.0594
     11 C         143.2389  138.4348  161.4350 C.ar    1  UNL1        0.0883
     12 N         144.3370  139.4559  161.4756 N.ar    1  UNL1       -0.2469
     13 C         144.4780  139.9289  162.8921 C.ar    1  UNL1        0.0685
     14 C         145.4578  140.9511  163.3869 C.3     1  UNL1        0.0527
     15 C         143.4670  139.2001  163.7269 C.ar    1  UNL1        0.0799
     16 S         142.7012  138.2767  162.8263 S.2     1  UNL1       -0.0680
     17 C         139.5641  139.7262  168.0591 C.3     1  UNL1        0.0730
     18 N         139.2012  139.5498  166.6144 N.3     1  UNL1       -0.2724
     19 C         139.1124  138.2445  165.8806 C.3     1  UNL1        0.0725
     20 C         138.7197  138.5357  164.4626 C.3     1  UNL1        0.0227
     21 C         138.5658  140.0210  164.3198 C.3     1  UNL1        0.0350
     22 C         138.2682  139.3943  162.9899 C.3     1  UNL1        0.0101
     23 C         137.9305  140.4922  162.0253 C.3     1  UNL1        0.0264
     24 C         138.0193  141.7974  162.7591 C.ar    1  UNL1       -0.0260
     25 C         137.7933  143.2135  162.3192 C.ar    1  UNL1       -0.0037
     26 C         137.9601  144.3384  163.2973 C.ar    1  UNL1        0.0111
     27 C         138.3528  144.0473  164.7153 C.ar    1  UNL1        0.0573
     28 CL        138.5195  145.1722  165.6936 Cl      1  UNL1       -0.0823
     29 C         138.5787  142.6311  165.1553 C.ar    1  UNL1        0.0068
     30 C         138.4120  141.5062  164.1771 C.ar    1  UNL1       -0.0246
     31 C         138.8634  140.6477  165.6498 C.3     1  UNL1        0.0761
@<TRIPOS>BOND
     1    10    11    1
     2    11    12   ar
     3    12    13   ar
     4    13    14    1
     5    13    15   ar
     6    15     4    1
     7     4     5   ar
     8     5     6   ar
     9     6     7   ar
    10     7     3    1
    11     3     2    1
    12     2     1    1
    13     1    17    1
    14    17    18    1
    15    18    19    1
    16    19    20    1
    17    20    21    1
    18    21    22    1
    19    22    23    1
    20    23    24    1
    21    24    25   ar
    22    25    26   ar
    23    26    27   ar
    24    27    28    1
    25    27    29   ar
    26    29    30   ar
    27    21    31    1
    28     7     8   ar
    29     8     9    1
    30    15    16   ar
    31    16    11   ar
    32     8     4   ar
    33    31    18    1
    34    30    21    1
    35    30    24   ar
@<TRIPOS>MOLECULE
*****
 31 35 0 0 0
SMALL
GASTEIGER

@<TRIPOS>ATOM
      1 C         143.9957  142.2732  161.2143 C.3     1  UNL1        0.0294
      2 C         144.1162  140.8109  161.5261 C.3     1  UNL1        0.0666
      3 S         144.4568  140.3663  162.9176 S.3     1  UNL1       -0.0756
      4 C         141.8316  139.4537  165.6271 C.ar    1  UNL1        0.1740
      5 N         141.6859  138.2985  164.6814 N.ar    1  UNL1       -0.1277
      6 N         142.6515  138.4997  163.5514 N.ar    1  UNL1       -0.1221
      7 C         143.3941  139.7794  163.7986 C.ar    1  UNL1        0.1932
      8 N         142.8875  140.3690  165.0814 N.ar    1  UNL1       -0.2880
      9 C         143.3545  141.6490  165.7085 C.3     1  UNL1        0.1340
     10 C         140.6368  140.3323  170.6948 C.3     1  UNL1        0.0594
     11 C         140.5084  140.0617  169.2250 C.ar    1  UNL1        0.0883
     12 N         139.2245  139.8822  168.4704 N.ar    1  UNL1       -0.2469
     13 C         139.5639  139.6326  167.0308 C.ar    1  UNL1        0.0685
     14 C         138.5821  139.3989  165.9211 C.3     1  UNL1        0.0527
     15 C         141.0576  139.6578  166.8957 C.ar    1  UNL1        0.0799
     16 S         141.6413  139.9230  168.2517 S.2     1  UNL1       -0.0680
     17 C         143.9913  143.2795  162.3267 C.3     1  UNL1        0.0730
     18 N         142.6902  143.7703  162.8888 N.3     1  UNL1       -0.2724
     19 C         142.4635  145.0903  163.5643 C.3     1  UNL1        0.0725
     20 C         141.0205  145.1631  163.9671 C.3     1  UNL1        0.0227
     21 C         140.3553  143.8880  163.5407 C.3     1  UNL1        0.0350
     22 C         139.3233  144.7488  164.2072 C.3     1  UNL1        0.0101
     23 C         138.0204  144.0058  164.1926 C.3     1  UNL1        0.0264
     24 C         138.2471  142.6858  163.5172 C.ar    1  UNL1       -0.0260
     25 C         137.3259  141.5407  163.2170 C.ar    1  UNL1       -0.0037
     26 C         137.8478  140.3228  162.5139 C.ar    1  UNL1        0.0111
     27 C         139.2908  140.2500  162.1110 C.ar    1  UNL1        0.0573
     28 CL        139.8127  139.0320  161.4078 Cl      1  UNL1       -0.0823
     29 C         140.2119  141.3951  162.4112 C.ar    1  UNL1        0.0068
     30 C         139.6901  142.6130  163.1143 C.ar    1  UNL1       -0.0246
     31 C         141.3872  143.0272  162.8743 C.3     1  UNL1        0.0761
@<TRIPOS>BOND
     1    10    11    1
     2    11    12   ar
     3    12    13   ar
     4    13    14    1
     5    13    15   ar
     6    15     4    1
     7     4     5   ar
     8     5     6   ar
     9     6     7   ar
    10     7     3    1
    11     3     2    1
    12     2     1    1
    13     1    17    1
    14    17    18    1
    15    18    19    1
    16    19    20    1
    17    20    21    1
    18    21    22    1
    19    22    23    1
    20    23    24    1
    21    24    25   ar
    22    25    26   ar
    23    26    27   ar
    24    27    28    1
    25    27    29   ar
    26    29    30   ar
    27    21    31    1
    28     7     8   ar
    29     8     9    1
    30    15    16   ar
    31    16    11   ar
    32     8     4   ar
    33    31    18    1
    34    30    21    1
    35    30    24   ar
@<TRIPOS>MOLECULE
*****
 31 35 0 0 0
SMALL
GASTEIGER

@<TRIPOS>ATOM
      1 C         140.0447  138.8289  161.4344 C.3     1  UNL1        0.0294
      2 C         139.8734  137.6193  162.3048 C.3     1  UNL1        0.0666
      3 S         139.5516  137.7825  163.7607 S.3     1  UNL1       -0.0756
      4 C         141.7298  139.5404  166.4498 C.ar    1  UNL1        0.1740
      5 N         142.7052  138.5477  165.8902 N.ar    1  UNL1       -0.1277
      6 N         142.0080  137.7683  164.8148 N.ar    1  UNL1       -0.1221
      7 C         140.6017  138.2794  164.7097 C.ar    1  UNL1        0.1932
      8 N         140.4297  139.3746  165.7201 N.ar    1  UNL1       -0.2880
      9 C         139.1775  140.1652  165.9590 C.3     1  UNL1        0.1340
     10 C         141.9138  141.8562  171.1915 C.3     1  UNL1        0.0594
     11 C         142.0906  141.5903  169.7259 C.ar    1  UNL1        0.0883
     12 N         142.7716  142.4946  168.7417 N.ar    1  UNL1       -0.2469
     13 C         142.7193  141.8368  167.3947 C.ar    1  UNL1        0.0685
     14 C         143.2816  142.3922  166.1198 C.3     1  UNL1        0.0527
     15 C         142.0060  140.5259  167.5464 C.ar    1  UNL1        0.0799
     16 S         141.6174  140.3736  168.9871 S.2     1  UNL1       -0.0680
     17 C         138.8866  139.7522  161.1969 C.3     1  UNL1        0.0730
     18 N         138.6609  140.9220  162.1084 N.3     1  UNL1       -0.2724
     19 C         137.3852  141.2459  162.8277 C.3     1  UNL1        0.0725
     20 C         137.6073  142.4973  163.6244 C.3     1  UNL1        0.0227
     21 C         139.0202  142.9468  163.3974 C.3     1  UNL1        0.0350
     22 C         138.3690  143.9204  164.3344 C.3     1  UNL1        0.0101
     23 C         139.3795  144.9716  164.6865 C.3     1  UNL1        0.0264
     24 C         140.6552  144.6476  163.9671 C.ar    1  UNL1       -0.0260
     25 C         141.9904  145.3304  163.9345 C.ar    1  UNL1       -0.0037
     26 C         143.1035  144.7618  163.1053 C.ar    1  UNL1        0.0111
     27 C         142.8815  143.5105  162.3087 C.ar    1  UNL1        0.0573
     28 CL        143.9947  142.9418  161.4794 Cl      1  UNL1       -0.0823
     29 C         141.5463  142.8277  162.3412 C.ar    1  UNL1        0.0068
     30 C         140.4332  143.3962  163.1704 C.ar    1  UNL1       -0.0246
     31 C         139.6715  141.9731  162.4604 C.3     1  UNL1        0.0761
@<TRIPOS>BOND
     1    10    11    1
     2    11    12   ar
     3    12    13   ar
     4    13    14    1
     5    13    15   ar
     6    15     4    1
     7     4     5   ar
     8     5     6   ar
     9     6     7   ar
    10     7     3    1
    11     3     2    1
    12     2     1    1
    13     1    17    1
    14    17    18    1
    15    18    19    1
    16    19    20    1
    17    20    21    1
    18    21    22    1
    19    22    23    1
    20    23    24    1
    21    24    25   ar
    22    25    26   ar
    23    26    27   ar
    24    27    28    1
    25    27    29   ar
    26    29    30   ar
    27    21    31    1
    28     7     8   ar
    29     8     9    1
    30    15    16   ar
    31    16    11   ar
    32     8     4   ar
    33    31    18    1
    34    30    21    1
    35    30    24   ar
@<TRIPOS>MOLECULE
*****
 31 35 0 0 0
SMALL
GASTEIGER

@<TRIPOS>ATOM
      1 C         142.7869  142.2467  159.8862 C.3     1  UNL1        0.0294
      2 C         142.2985  143.6637  159.8250 C.3     1  UNL1        0.0666
      3 S         141.4217  144.2026  160.9161 S.3     1  UNL1       -0.0756
      4 C         141.1622  142.4077  164.3479 C.ar    1  UNL1        0.1740
      5 N         142.3413  143.3057  164.5788 N.ar    1  UNL1       -0.1277
      6 N         142.5820  144.0874  163.3214 N.ar    1  UNL1       -0.1221
      7 C         141.5517  143.6725  162.3133 C.ar    1  UNL1        0.1932
      8 N         140.6742  142.6344  162.9476 N.ar    1  UNL1       -0.2880
      9 C         139.5126  141.9442  162.2962 C.3     1  UNL1        0.1340
     10 C         137.9987  138.8467  166.6265 C.3     1  UNL1        0.0594
     11 C         139.1202  139.8142  166.3898 C.ar    1  UNL1        0.0883
     12 N         140.2193  140.1434  167.3560 N.ar    1  UNL1       -0.2469
     13 C         141.1180  141.1550  166.7087 C.ar    1  UNL1        0.0685
     14 C         142.3449  141.7637  167.3203 C.3     1  UNL1        0.0527
     15 C         140.5743  141.4510  165.3424 C.ar    1  UNL1        0.0799
     16 S         139.3397  140.6223  165.1453 S.2     1  UNL1       -0.0680
     17 C         144.1421  141.9443  160.4537 C.3     1  UNL1        0.0730
     18 N         144.2630  141.2785  161.7924 N.3     1  UNL1       -0.2724
     19 C         145.3409  141.5257  162.8059 C.3     1  UNL1        0.0725
     20 C         145.0713  140.6486  163.9925 C.3     1  UNL1        0.0227
     21 C         143.8269  139.8593  163.7124 C.3     1  UNL1        0.0350
     22 C         144.3264  139.4701  165.0722 C.3     1  UNL1        0.0101
     23 C         143.3907  138.4402  165.6324 C.3     1  UNL1        0.0264
     24 C         142.3130  138.1930  164.6189 C.ar    1  UNL1       -0.0260
     25 C         141.1208  137.2826  164.6233 C.ar    1  UNL1       -0.0037
     26 C         140.1983  137.2493  163.4410 C.ar    1  UNL1        0.0111
     27 C         140.4678  138.1263  162.2544 C.ar    1  UNL1        0.0573
     28 CL        139.5452  138.0929  161.0721 Cl      1  UNL1       -0.0823
     29 C         141.6599  139.0367  162.2501 C.ar    1  UNL1        0.0068
     30 C         142.5824  139.0701  163.4323 C.ar    1  UNL1       -0.0246
     31 C         143.3273  140.2486  162.3527 C.3     1  UNL1        0.0761
@<TRIPOS>BOND
     1    10    11    1
     2    11    12   ar
     3    12    13   ar
     4    13    14    1
     5    13    15   ar
     6    15     4    1
     7     4     5   ar
     8     5     6   ar
     9     6     7   ar
    10     7     3    1
    11     3     2    1
    12     2     1    1
    13     1    17    1
    14    17    18    1
    15    18    19    1
    16    19    20    1
    17    20    21    1
    18    21    22    1
    19    22    23    1
    20    23    24    1
    21    24    25   ar
    22    25    26   ar
    23    26    27   ar
    24    27    28    1
    25    27    29   ar
    26    29    30   ar
    27    21    31    1
    28     7     8   ar
    29     8     9    1
    30    15    16   ar
    31    16    11   ar
    32     8     4   ar
    33    31    18    1
    34    30    21    1
    35    30    24   ar
@<TRIPOS>MOLECULE
*****
 31 35 0 0 0
SMALL
GASTEIGER

@<TRIPOS>ATOM
      1 C         144.1802  142.3186  161.6792 C.3     1  UNL1        0.0294
      2 C         145.3368  141.9180  162.5463 C.3     1  UNL1        0.0666
      3 S         145.1161  141.0070  163.7173 S.3     1  UNL1       -0.0756
      4 C         142.0619  141.0202  166.1126 C.ar    1  UNL1        0.1740
      5 N         142.5507  142.4309  166.2583 N.ar    1  UNL1       -0.1277
      6 N         143.7543  142.5976  165.3788 N.ar    1  UNL1       -0.1221
      7 C         144.0094  141.2900  164.6895 C.ar    1  UNL1        0.1932
      8 N         142.9634  140.3151  165.1429 N.ar    1  UNL1       -0.2880
      9 C         142.8406  138.8861  164.7039 C.3     1  UNL1        0.1340
     10 C         137.5351  138.4618  167.0311 C.3     1  UNL1        0.0594
     11 C         138.7985  139.2441  167.2356 C.ar    1  UNL1        0.0883
     12 N         139.3201  139.7491  168.5482 N.ar    1  UNL1       -0.2469
     13 C         140.6061  140.4759  168.2873 C.ar    1  UNL1        0.0685
     14 C         141.4677  141.1416  169.3191 C.3     1  UNL1        0.0527
     15 C         140.8792  140.4201  166.8134 C.ar    1  UNL1        0.0799
     16 S         139.7621  139.6588  166.1634 S.2     1  UNL1       -0.0680
     17 C         143.6091  143.7017  161.7823 C.3     1  UNL1        0.0730
     18 N         142.3610  143.9403  162.5794 N.3     1  UNL1       -0.2724
     19 C         142.0660  145.1510  163.4144 C.3     1  UNL1        0.0725
     20 C         140.7114  144.9690  164.0323 C.3     1  UNL1        0.0227
     21 C         140.1692  143.6458  163.5793 C.3     1  UNL1        0.0350
     22 C         139.1497  144.2816  164.4773 C.3     1  UNL1        0.0101
     23 C         137.9774  143.3513  164.5792 C.3     1  UNL1        0.0264
     24 C         138.2724  142.1408  163.7441 C.ar    1  UNL1       -0.0260
     25 C         137.4825  140.8961  163.4666 C.ar    1  UNL1       -0.0037
     26 C         138.0472  139.8335  162.5712 C.ar    1  UNL1        0.0111
     27 C         139.4018  140.0154  161.9532 C.ar    1  UNL1        0.0573
     28 CL        139.9665  138.9528  161.0577 Cl      1  UNL1       -0.0823
     29 C         140.1916  141.2601  162.2307 C.ar    1  UNL1        0.0068
     30 C         139.6269  142.3227  163.1262 C.ar    1  UNL1       -0.0246
     31 C         141.1887  143.0101  162.6812 C.3     1  UNL1        0.0761
@<TRIPOS>BOND
     1    10    11    1
     2    11    12   ar
     3    12    13   ar
     4    13    14    1
     5    13    15   ar
     6    15     4    1
     7     4     5   ar
     8     5     6   ar
     9     6     7   ar
    10     7     3    1
    11     3     2    1
    12     2     1    1
    13     1    17    1
    14    17    18    1
    15    18    19    1
    16    19    20    1
    17    20    21    1
    18    21    22    1
    19    22    23    1
    20    23    24    1
    21    24    25   ar
    22    25    26   ar
    23    26    27   ar
    24    27    28    1
    25    27    29   ar
    26    29    30   ar
    27    21    31    1
    28     7     8   ar
    29     8     9    1
    30    15    16   ar
    31    16    11   ar
    32     8     4   ar
    33    31    18    1
    34    30    21    1
    35    30    24   ar
@<TRIPOS>MOLECULE
*****
 31 35 0 0 0
SMALL
GASTEIGER

@<TRIPOS>ATOM
      1 C         144.0318  141.7508  161.2438 C.3     1  UNL1        0.0294
      2 C         145.1555  141.8450  162.2329 C.3     1  UNL1        0.0666
      3 S         145.1023  141.0536  163.5060 S.3     1  UNL1       -0.0756
      4 C         142.1390  141.0599  166.0129 C.ar    1  UNL1        0.1740
      5 N         142.6322  142.4705  166.1434 N.ar    1  UNL1       -0.1277
      6 N         143.8022  142.6399  165.2203 N.ar    1  UNL1       -0.1221
      7 C         144.0323  141.3339  164.5191 C.ar    1  UNL1        0.1932
      8 N         143.0044  140.3574  165.0090 N.ar    1  UNL1       -0.2880
      9 C         142.8661  138.9292  164.5717 C.3     1  UNL1        0.1340
     10 C         137.6007  138.5831  167.0852 C.3     1  UNL1        0.0594
     11 C         138.8975  139.3191  167.2487 C.ar    1  UNL1        0.0883
     12 N         139.5132  139.7422  168.5494 N.ar    1  UNL1       -0.2469
     13 C         140.8024  140.4458  168.2448 C.ar    1  UNL1        0.0685
     14 C         141.7451  141.0343  169.2522 C.3     1  UNL1        0.0527
     15 C         140.9835  140.4575  166.7558 C.ar    1  UNL1        0.0799
     16 S         139.8061  139.7612  166.1401 S.2     1  UNL1       -0.0680
     17 C         143.3140  140.4486  161.0457 C.3     1  UNL1        0.0730
     18 N         141.8810  140.3105  161.4670 N.3     1  UNL1       -0.2724
     19 C         140.9999  139.1221  161.2193 C.3     1  UNL1        0.0725
     20 C         139.6519  139.4136  161.8092 C.3     1  UNL1        0.0227
     21 C         139.7000  140.7821  162.4215 C.3     1  UNL1        0.0350
     22 C         138.3223  140.2278  162.6330 C.3     1  UNL1        0.0101
     23 C         137.5189  141.2538  163.3760 C.3     1  UNL1        0.0264
     24 C         138.4001  142.4420  163.6237 C.ar    1  UNL1       -0.0260
     25 C         138.1492  143.7519  164.3102 C.ar    1  UNL1       -0.0037
     26 C         139.2463  144.7703  164.4068 C.ar    1  UNL1        0.0111
     27 C         140.5942  144.4789  163.8170 C.ar    1  UNL1        0.0573
     28 CL        141.6913  145.4973  163.9136 Cl      1  UNL1       -0.0823
     29 C         140.8451  143.1690  163.1304 C.ar    1  UNL1        0.0068
     30 C         139.7480  142.1506  163.0338 C.ar    1  UNL1       -0.0246
     31 C         141.0777  141.3364  162.2100 C.3     1  UNL1        0.0761
@<TRIPOS>BOND
     1    10    11    1
     2    11    12   ar
     3    12    13   ar
     4    13    14    1
     5    13    15   ar
     6    15     4    1
     7     4     5   ar
     8     5     6   ar
     9     6     7   ar
    10     7     3    1
    11     3     2    1
    12     2     1    1
    13     1    17    1
    14    17    18    1
    15    18    19    1
    16    19    20    1
    17    20    21    1
    18    21    22    1
    19    22    23    1
    20    23    24    1
    21    24    25   ar
    22    25    26   ar
    23    26    27   ar
    24    27    28    1
    25    27    29   ar
    26    29    30   ar
    27    21    31    1
    28     7     8   ar
    29     8     9    1
    30    15    16   ar
    31    16    11   ar
    32     8     4   ar
    33    31    18    1
    34    30    21    1
    35    30    24   ar
@<TRIPOS>MOLECULE
*****
 31 35 0 0 0
SMALL
GASTEIGER

@<TRIPOS>ATOM
      1 C         138.4077  142.3871  160.7233 C.3     1  UNL1        0.0294
      2 C         138.4670  141.1791  161.6106 C.3     1  UNL1        0.0666
      3 S         137.9942  141.2682  163.0313 S.3     1  UNL1       -0.0756
      4 C         140.0103  139.8058  166.0083 C.ar    1  UNL1        0.1740
      5 N         139.3616  138.5686  165.4618 N.ar    1  UNL1       -0.1277
      6 N         138.5274  138.9658  164.2802 N.ar    1  UNL1       -0.1221
      7 C         138.6605  140.4485  164.0963 C.ar    1  UNL1        0.1932
      8 N         139.5770  140.9677  165.1642 N.ar    1  UNL1       -0.2880
      9 C         139.9880  142.3976  165.3548 C.3     1  UNL1        0.1340
     10 C         141.8726  140.5987  170.8851 C.3     1  UNL1        0.0594
     11 C         141.7867  140.2343  169.4326 C.ar    1  UNL1        0.0883
     12 N         142.9074  139.7024  168.5893 N.ar    1  UNL1       -0.2469
     13 C         142.3783  139.4772  167.2039 C.ar    1  UNL1        0.0685
     14 C         143.1597  138.9516  166.0363 C.3     1  UNL1        0.0527
     15 C         140.9307  139.8698  167.1910 C.ar    1  UNL1        0.0799
     16 S         140.5650  140.3377  168.5684 S.2     1  UNL1       -0.0680
     17 C         139.6719  143.0932  160.3320 C.3     1  UNL1        0.0730
     18 N         140.5317  143.7297  161.3834 N.3     1  UNL1       -0.2724
     19 C         140.3211  145.0836  161.9939 C.3     1  UNL1        0.0725
     20 C         141.4123  145.3147  162.9967 C.3     1  UNL1        0.0227
     21 C         142.2974  144.1037  163.0061 C.3     1  UNL1        0.0350
     22 C         142.8417  145.0832  164.0032 C.3     1  UNL1        0.0101
     23 C         144.0631  144.4776  164.6287 C.3     1  UNL1        0.0264
     24 C         144.2737  143.1238  164.0182 C.ar    1  UNL1       -0.0260
     25 C         145.3183  142.0716  164.2459 C.ar    1  UNL1       -0.0037
     26 C         145.2715  140.7883  163.4708 C.ar    1  UNL1        0.0111
     27 C         144.1803  140.5571  162.4679 C.ar    1  UNL1        0.0573
     28 CL        144.1335  139.2737  161.6927 Cl      1  UNL1       -0.0823
     29 C         143.1358  141.6093  162.2402 C.ar    1  UNL1        0.0068
     30 C         143.1825  142.8927  163.0154 C.ar    1  UNL1       -0.0246
     31 C         141.7532  143.1241  162.0090 C.3     1  UNL1        0.0761
@<TRIPOS>BOND
     1    10    11    1
     2    11    12   ar
     3    12    13   ar
     4    13    14    1
     5    13    15   ar
     6    15     4    1
     7     4     5   ar
     8     5     6   ar
     9     6     7   ar
    10     7     3    1
    11     3     2    1
    12     2     1    1
    13     1    17    1
    14    17    18    1
    15    18    19    1
    16    19    20    1
    17    20    21    1
    18    21    22    1
    19    22    23    1
    20    23    24    1
    21    24    25   ar
    22    25    26   ar
    23    26    27   ar
    24    27    28    1
    25    27    29   ar
    26    29    30   ar
    27    21    31    1
    28     7     8   ar
    29     8     9    1
    30    15    16   ar
    31    16    11   ar
    32     8     4   ar
    33    31    18    1
    34    30    21    1
    35    30    24   ar
