@<TRIPOS>MOLECULE
*****
 32 35 0 0 0
SMALL
GASTEIGER

@<TRIPOS>ATOM
      1 O         138.9337  139.5311  168.3608 O.2     1  UNL1       -0.2699
      2 C         140.1744  140.1543  167.7933 C.2     1  UNL1        0.2494
      3 N         140.5945  139.8428  166.3874 N.am    1  UNL1       -0.2660
      4 C         141.8353  140.4660  165.8199 C.3     1  UNL1        0.1160
      5 C         142.2554  140.1545  164.4140 C.3     1  UNL1        0.1197
      6 N         141.4347  139.2197  163.5757 N.am    1  UNL1       -0.2555
      7 C         140.1940  138.5965  164.1433 C.2     1  UNL1        0.2497
      8 O         139.3733  137.6618  163.3050 O.2     1  UNL1       -0.2727
      9 C         139.7739  138.9080  165.5491 C.3     1  UNL1        0.1799
     10 C         140.9951  141.0891  168.6316 C.ar    1  UNL1        0.0537
     11 C         140.4465  142.4320  169.0133 C.ar    1  UNL1        0.0068
     12 C         141.2671  143.3667  169.8516 C.ar    1  UNL1        0.0298
     13 C         142.6364  142.9585  170.3082 C.ar    1  UNL1        0.1401
     14 F         143.4570  143.8933  171.1466 F       1  UNL1       -0.2042
     15 C         143.1850  141.6157  169.9266 C.ar    1  UNL1        0.0298
     16 C         142.3644  140.6810  169.0883 C.ar    1  UNL1        0.0068
     17 C         141.8548  138.9082  162.1699 C.ar    1  UNL1        0.0541
     18 C         141.0919  139.4843  161.0140 C.ar    1  UNL1        0.0180
     19 C         141.5121  139.1728  159.6081 C.ar    1  UNL1        0.0382
     20 C         142.6951  138.2851  159.3581 C.ar    1  UNL1        0.1386
     21 C         143.4580  137.7090  160.5140 C.ar    1  UNL1        0.0382
     22 C         143.0379  138.0205  161.9198 C.ar    1  UNL1        0.0180
     23 O         143.1152  137.9736  157.9523 O.3     1  UNL1       -0.4754
     24 C         142.4195  136.8889  157.1845 C.3     1  UNL1        0.2068
     25 C         143.2007  135.7181  156.6656 C.3     1  UNL1        0.0646
     26 C         142.5282  134.3899  156.4821 C.3     1  UNL1        0.0759
     27 N         143.2327  133.1299  156.8897 N.3     1  UNL1       -0.2726
     28 C         142.6676  131.7956  156.5021 C.3     1  UNL1        0.0721
     29 C         143.3722  130.5356  156.9097 C.3     1  UNL1        0.0174
     30 C         144.6418  130.6100  157.7050 C.3     1  UNL1        0.0029
     31 C         145.2069  131.9443  158.0927 C.3     1  UNL1        0.0174
     32 C         144.5024  133.2042  157.6851 C.3     1  UNL1        0.0721
@<TRIPOS>BOND
     1     1     2    2
     2     2    10    1
     3    10    11   ar
     4    11    12   ar
     5    12    13   ar
     6    13    14    1
     7    13    15   ar
     8    15    16   ar
     9     2     3   am
    10     3     4    1
    11     4     5    1
    12     5     6    1
    13     6    17    1
    14    17    18   ar
    15    18    19   ar
    16    19    20   ar
    17    20    23    1
    18    23    24    1
    19    24    25    1
    20    25    26    1
    21    26    27    1
    22    27    28    1
    23    28    29    1
    24    29    30    1
    25    30    31    1
    26    31    32    1
    27    20    21   ar
    28    21    22   ar
    29     6     7   am
    30     7     8    2
    31     7     9    1
    32    16    10   ar
    33     9     3    1
    34    22    17   ar
    35    32    27    1
@<TRIPOS>MOLECULE
*****
 32 35 0 0 0
SMALL
GASTEIGER

@<TRIPOS>ATOM
      1 O         138.9561  139.5166  168.4017 O.2     1  UNL1       -0.2699
      2 C         139.8469  140.5353  167.7546 C.2     1  UNL1        0.2494
      3 N         139.8018  140.7353  166.2687 N.am    1  UNL1       -0.2660
      4 C         140.6927  141.7539  165.6216 C.3     1  UNL1        0.1160
      5 C         140.6475  141.9539  164.1356 C.3     1  UNL1        0.1197
      6 N         139.7114  141.1352  163.2968 N.am    1  UNL1       -0.2555
      7 C         138.8205  140.1166  163.9439 C.2     1  UNL1        0.2497
      8 O         137.8845  139.2980  163.1051 O.2     1  UNL1       -0.2727
      9 C         138.8657  139.9166  165.4298 C.3     1  UNL1        0.1799
     10 C         140.7830  141.3539  168.5935 C.ar    1  UNL1        0.0537
     11 C         140.3303  142.6681  169.1572 C.ar    1  UNL1        0.0068
     12 C         141.2664  143.4867  169.9960 C.ar    1  UNL1        0.0298
     13 C         142.6552  142.9910  170.2711 C.ar    1  UNL1        0.1401
     14 F         143.5913  143.8097  171.1100 F       1  UNL1       -0.2042
     15 C         143.1079  141.6768  169.7073 C.ar    1  UNL1        0.0298
     16 C         142.1718  140.8583  168.8685 C.ar    1  UNL1        0.0068
     17 C         139.6662  141.3352  161.8109 C.ar    1  UNL1        0.0541
     18 C         138.6429  142.2516  161.2083 C.ar    1  UNL1        0.0180
     19 C         138.5978  142.4516  159.7223 C.ar    1  UNL1        0.0382
     20 C         139.5759  141.7352  158.8391 C.ar    1  UNL1        0.1386
     21 C         140.5992  140.8189  159.4417 C.ar    1  UNL1        0.0382
     22 C         140.6444  140.6189  160.9276 C.ar    1  UNL1        0.0180
     23 O         139.5308  141.9352  157.3532 O.3     1  UNL1       -0.4754
     24 C         140.4764  142.8970  156.6968 C.3     1  UNL1        0.2068
     25 C         140.4544  144.3479  157.0771 C.3     1  UNL1        0.0646
     26 C         141.5203  144.9044  157.9737 C.3     1  UNL1        0.0759
     27 N         141.2907  144.9806  159.4540 N.3     1  UNL1       -0.2726
     28 C         142.1592  144.1926  160.3893 C.3     1  UNL1        0.0721
     29 C         141.9295  144.2689  161.8697 C.3     1  UNL1        0.0174
     30 C         140.8314  145.1331  162.4148 C.3     1  UNL1        0.0029
     31 C         139.9628  145.9211  161.4795 C.3     1  UNL1        0.0174
     32 C         140.1925  145.8449  159.9992 C.3     1  UNL1        0.0721
@<TRIPOS>BOND
     1     1     2    2
     2     2    10    1
     3    10    11   ar
     4    11    12   ar
     5    12    13   ar
     6    13    14    1
     7    13    15   ar
     8    15    16   ar
     9     2     3   am
    10     3     4    1
    11     4     5    1
    12     5     6    1
    13     6    17    1
    14    17    18   ar
    15    18    19   ar
    16    19    20   ar
    17    20    23    1
    18    23    24    1
    19    24    25    1
    20    25    26    1
    21    26    27    1
    22    27    28    1
    23    28    29    1
    24    29    30    1
    25    30    31    1
    26    31    32    1
    27    20    21   ar
    28    21    22   ar
    29     6     7   am
    30     7     8    2
    31     7     9    1
    32    16    10   ar
    33     9     3    1
    34    22    17   ar
    35    32    27    1
@<TRIPOS>MOLECULE
*****
 32 35 0 0 0
SMALL
GASTEIGER

@<TRIPOS>ATOM
      1 O         144.9025  137.3864  155.3914 O.2     1  UNL1       -0.2699
      2 C         143.6318  136.9905  156.0832 C.2     1  UNL1        0.2494
      3 N         142.8844  137.9937  156.9107 N.am    1  UNL1       -0.2660
      4 C         141.6137  137.5977  157.6024 C.3     1  UNL1        0.1160
      5 C         140.8662  138.6011  158.4300 C.3     1  UNL1        0.1197
      6 N         141.3895  140.0002  158.5658 N.am    1  UNL1       -0.2555
      7 C         142.6602  140.3961  157.8740 C.2     1  UNL1        0.2497
      8 O         143.1835  141.7953  158.0098 O.2     1  UNL1       -0.2727
      9 C         143.4077  139.3929  157.0465 C.3     1  UNL1        0.1799
     10 C         143.1085  135.5912  155.9473 C.ar    1  UNL1        0.0537
     11 C         142.1936  135.2396  154.8119 C.ar    1  UNL1        0.0068
     12 C         141.6704  133.8404  154.6761 C.ar    1  UNL1        0.0298
     13 C         142.0621  132.7929  155.6758 C.ar    1  UNL1        0.1401
     14 F         141.5388  131.3936  155.5399 F       1  UNL1       -0.2042
     15 C         142.9769  133.1445  156.8112 C.ar    1  UNL1        0.0298
     16 C         143.5002  134.5437  156.9470 C.ar    1  UNL1        0.0068
     17 C         140.6421  141.0034  159.3933 C.ar    1  UNL1        0.0541
     18 C         141.1501  141.3817  160.7530 C.ar    1  UNL1        0.0180
     19 C         140.4026  142.3850  161.5806 C.ar    1  UNL1        0.0382
     20 C         139.1472  143.0099  161.0484 C.ar    1  UNL1        0.1386
     21 C         138.6392  142.6317  159.6886 C.ar    1  UNL1        0.0382
     22 C         139.3866  141.6285  158.8611 C.ar    1  UNL1        0.0180
     23 O         138.3997  144.0132  161.8759 O.3     1  UNL1       -0.4754
     24 C         138.3683  143.8790  163.3696 C.3     1  UNL1        0.2068
     25 C         137.6568  142.7207  164.0037 C.3     1  UNL1        0.0646
     26 C         137.1529  141.5930  163.1526 C.3     1  UNL1        0.0759
     27 N         137.8657  140.2733  163.1573 N.3     1  UNL1       -0.2726
     28 C         138.5081  139.7723  164.4168 C.3     1  UNL1        0.0721
     29 C         139.2210  138.4525  164.4214 C.3     1  UNL1        0.0174
     30 C         139.2915  137.6337  163.1666 C.3     1  UNL1        0.0029
     31 C         138.6492  138.1348  161.9071 C.3     1  UNL1        0.0174
     32 C         137.9363  139.4545  161.9024 C.3     1  UNL1        0.0721
@<TRIPOS>BOND
     1     1     2    2
     2     2    10    1
     3    10    11   ar
     4    11    12   ar
     5    12    13   ar
     6    13    14    1
     7    13    15   ar
     8    15    16   ar
     9     2     3   am
    10     3     4    1
    11     4     5    1
    12     5     6    1
    13     6    17    1
    14    17    18   ar
    15    18    19   ar
    16    19    20   ar
    17    20    23    1
    18    23    24    1
    19    24    25    1
    20    25    26    1
    21    26    27    1
    22    27    28    1
    23    28    29    1
    24    29    30    1
    25    30    31    1
    26    31    32    1
    27    20    21   ar
    28    21    22   ar
    29     6     7   am
    30     7     8    2
    31     7     9    1
    32    16    10   ar
    33     9     3    1
    34    22    17   ar
    35    32    27    1
@<TRIPOS>MOLECULE
*****
 32 35 0 0 0
SMALL
GASTEIGER

@<TRIPOS>ATOM
      1 O         138.8538  139.5121  168.7013 O.2     1  UNL1       -0.2699
      2 C         140.0284  140.1576  168.0278 C.2     1  UNL1        0.2494
      3 N         140.3182  139.8676  166.5850 N.am    1  UNL1       -0.2660
      4 C         141.4929  140.5131  165.9115 C.3     1  UNL1        0.1160
      5 C         141.7827  140.2231  164.4685 C.3     1  UNL1        0.1197
      6 N         140.8979  139.2877  163.6992 N.am    1  UNL1       -0.2555
      7 C         139.7233  138.6422  164.3727 C.2     1  UNL1        0.2497
      8 O         138.8385  137.7067  163.6033 O.2     1  UNL1       -0.2727
      9 C         139.4334  138.9321  165.8155 C.3     1  UNL1        0.1799
     10 C         140.9132  141.0931  168.7973 C.ar    1  UNL1        0.0537
     11 C         142.2854  140.6543  169.2151 C.ar    1  UNL1        0.0068
     12 C         143.1701  141.5898  169.9845 C.ar    1  UNL1        0.0298
     13 C         142.6827  142.9641  170.3361 C.ar    1  UNL1        0.1401
     14 F         143.5675  143.8997  171.1055 F       1  UNL1       -0.2042
     15 C         141.3105  143.4030  169.9183 C.ar    1  UNL1        0.0298
     16 C         140.4258  142.4675  169.1489 C.ar    1  UNL1        0.0068
     17 C         141.1877  138.9977  162.2563 C.ar    1  UNL1        0.0541
     18 C         140.3939  139.6777  161.1805 C.ar    1  UNL1        0.0180
     19 C         140.6838  139.3877  159.7376 C.ar    1  UNL1        0.0382
     20 C         141.7674  138.4177  159.3706 C.ar    1  UNL1        0.1386
     21 C         142.5612  137.7377  160.4464 C.ar    1  UNL1        0.0382
     22 C         142.2714  138.0276  161.8892 C.ar    1  UNL1        0.0180
     23 O         142.0573  138.1277  157.9277 O.3     1  UNL1       -0.4754
     24 C         142.4163  139.2465  156.9953 C.3     1  UNL1        0.2068
     25 C         143.6936  140.0076  157.1938 C.3     1  UNL1        0.0646
     26 C         143.6512  141.4616  157.5599 C.3     1  UNL1        0.0759
     27 N         143.2420  141.8752  158.9424 N.3     1  UNL1       -0.2726
     28 C         143.9569  141.3140  160.1357 C.3     1  UNL1        0.0721
     29 C         143.5476  141.7277  161.5182 C.3     1  UNL1        0.0174
     30 C         142.4235  142.7026  161.7075 C.3     1  UNL1        0.0029
     31 C         141.7086  143.2639  160.5142 C.3     1  UNL1        0.0174
     32 C         142.1178  142.8502  159.1317 C.3     1  UNL1        0.0721
@<TRIPOS>BOND
     1     1     2    2
     2     2    10    1
     3    10    11   ar
     4    11    12   ar
     5    12    13   ar
     6    13    14    1
     7    13    15   ar
     8    15    16   ar
     9     2     3   am
    10     3     4    1
    11     4     5    1
    12     5     6    1
    13     6    17    1
    14    17    18   ar
    15    18    19   ar
    16    19    20   ar
    17    20    23    1
    18    23    24    1
    19    24    25    1
    20    25    26    1
    21    26    27    1
    22    27    28    1
    23    28    29    1
    24    29    30    1
    25    30    31    1
    26    31    32    1
    27    20    21   ar
    28    21    22   ar
    29     6     7   am
    30     7     8    2
    31     7     9    1
    32    16    10   ar
    33     9     3    1
    34    22    17   ar
    35    32    27    1
@<TRIPOS>MOLECULE
*****
 32 35 0 0 0
SMALL
GASTEIGER

@<TRIPOS>ATOM
      1 O         143.2298  138.8246  168.0002 O.2     1  UNL1       -0.2699
      2 C         142.1571  139.7236  167.4608 C.2     1  UNL1        0.2494
      3 N         141.8361  139.7128  165.9956 N.am    1  UNL1       -0.2660
      4 C         140.7634  140.6118  165.4561 C.3     1  UNL1        0.1160
      5 C         140.4424  140.6009  163.9908 C.3     1  UNL1        0.1197
      6 N         141.1942  139.6911  163.0651 N.am    1  UNL1       -0.2555
      7 C         142.2670  138.7921  163.6046 C.2     1  UNL1        0.2497
      8 O         143.0188  137.8823  162.6789 O.2     1  UNL1       -0.2727
      9 C         142.5879  138.8029  165.0698 C.3     1  UNL1        0.1799
     10 C         141.4053  140.6335  168.3866 C.ar    1  UNL1        0.0537
     11 C         140.1631  140.1463  169.0718 C.ar    1  UNL1        0.0068
     12 C         139.4113  141.0562  169.9975 C.ar    1  UNL1        0.0298
     13 C         139.9018  142.4531  170.2381 C.ar    1  UNL1        0.1401
     14 F         139.1500  143.3630  171.1639 F       1  UNL1       -0.2042
     15 C         141.1440  142.9403  169.5529 C.ar    1  UNL1        0.0298
     16 C         141.8958  142.0305  168.6271 C.ar    1  UNL1        0.0068
     17 C         140.8733  139.6803  161.5999 C.ar    1  UNL1        0.0541
     18 C         141.6018  140.6003  160.6657 C.ar    1  UNL1        0.0180
     19 C         141.2808  140.5894  159.2005 C.ar    1  UNL1        0.0382
     20 C         140.2313  139.6586  158.6695 C.ar    1  UNL1        0.1386
     21 C         139.5027  138.7386  159.6037 C.ar    1  UNL1        0.0382
     22 C         139.8237  138.7494  161.0689 C.ar    1  UNL1        0.0180
     23 O         139.9103  139.6478  157.2043 O.3     1  UNL1       -0.4754
     24 C         138.8295  140.5381  156.6667 C.3     1  UNL1        0.2068
     25 C         138.8719  142.0138  156.9328 C.3     1  UNL1        0.0646
     26 C         138.0879  142.5931  158.0729 C.3     1  UNL1        0.0759
     27 N         138.8027  143.1509  159.2678 N.3     1  UNL1       -0.2726
     28 C         138.4329  142.6892  160.6462 C.3     1  UNL1        0.0721
     29 C         139.1478  143.2471  161.8410 C.3     1  UNL1        0.0174
     30 C         140.2325  144.2667  161.6575 C.3     1  UNL1        0.0029
     31 C         140.6024  144.7285  160.2791 C.3     1  UNL1        0.0174
     32 C         139.8875  144.1706  159.0842 C.3     1  UNL1        0.0721
@<TRIPOS>BOND
     1     1     2    2
     2     2    10    1
     3    10    11   ar
     4    11    12   ar
     5    12    13   ar
     6    13    14    1
     7    13    15   ar
     8    15    16   ar
     9     2     3   am
    10     3     4    1
    11     4     5    1
    12     5     6    1
    13     6    17    1
    14    17    18   ar
    15    18    19   ar
    16    19    20   ar
    17    20    23    1
    18    23    24    1
    19    24    25    1
    20    25    26    1
    21    26    27    1
    22    27    28    1
    23    28    29    1
    24    29    30    1
    25    30    31    1
    26    31    32    1
    27    20    21   ar
    28    21    22   ar
    29     6     7   am
    30     7     8    2
    31     7     9    1
    32    16    10   ar
    33     9     3    1
    34    22    17   ar
    35    32    27    1
@<TRIPOS>MOLECULE
*****
 32 35 0 0 0
SMALL
GASTEIGER

@<TRIPOS>ATOM
      1 O         143.1900  138.8353  168.1794 O.2     1  UNL1       -0.2699
      2 C         142.4697  140.0285  167.6249 C.2     1  UNL1        0.2494
      3 N         142.5830  140.3621  166.1669 N.am    1  UNL1       -0.2660
      4 C         141.8627  141.5553  165.6123 C.3     1  UNL1        0.1160
      5 C         141.9760  141.8889  164.1543 C.3     1  UNL1        0.1197
      6 N         142.8096  141.0294  163.2508 N.am    1  UNL1       -0.2555
      7 C         143.5299  139.8362  163.8053 C.2     1  UNL1        0.2497
      8 O         144.3635  138.9767  162.9019 O.2     1  UNL1       -0.2727
      9 C         143.4166  139.5026  165.2633 C.3     1  UNL1        0.1799
     10 C         141.6360  140.8880  168.5284 C.ar    1  UNL1        0.0537
     11 C         140.2760  140.4249  168.9593 C.ar    1  UNL1        0.0068
     12 C         139.4424  141.2844  169.8628 C.ar    1  UNL1        0.0298
     13 C         139.9689  142.6070  170.3354 C.ar    1  UNL1        0.1401
     14 F         139.1353  143.4666  171.2389 F       1  UNL1       -0.2042
     15 C         141.3290  143.0702  169.9045 C.ar    1  UNL1        0.0298
     16 C         142.1625  142.2107  169.0010 C.ar    1  UNL1        0.0068
     17 C         142.9229  141.3631  161.7928 C.ar    1  UNL1        0.0541
     18 C         143.9102  142.3950  161.3341 C.ar    1  UNL1        0.0180
     19 C         144.0235  142.7286  159.8760 C.ar    1  UNL1        0.0382
     20 C         143.1495  142.0303  158.8767 C.ar    1  UNL1        0.1386
     21 C         142.1622  140.9984  159.3355 C.ar    1  UNL1        0.0382
     22 C         142.0489  140.6648  160.7935 C.ar    1  UNL1        0.0180
     23 O         143.2628  142.3640  157.4187 O.3     1  UNL1       -0.4754
     24 C         142.3370  143.3727  156.8060 C.3     1  UNL1        0.2068
     25 C         142.2876  144.7710  157.3466 C.3     1  UNL1        0.0646
     26 C         141.0443  145.2710  158.0207 C.3     1  UNL1        0.0759
     27 N         140.5119  144.5643  159.2319 N.3     1  UNL1       -0.2726
     28 C         141.0173  144.9296  160.5961 C.3     1  UNL1        0.0721
     29 C         140.4849  144.2228  161.8073 C.3     1  UNL1        0.0174
     30 C         139.4470  143.1507  161.6543 C.3     1  UNL1        0.0029
     31 C         138.9416  142.7854  160.2901 C.3     1  UNL1        0.0174
     32 C         139.4740  143.4921  159.0789 C.3     1  UNL1        0.0721
@<TRIPOS>BOND
     1     1     2    2
     2     2    10    1
     3    10    11   ar
     4    11    12   ar
     5    12    13   ar
     6    13    14    1
     7    13    15   ar
     8    15    16   ar
     9     2     3   am
    10     3     4    1
    11     4     5    1
    12     5     6    1
    13     6    17    1
    14    17    18   ar
    15    18    19   ar
    16    19    20   ar
    17    20    23    1
    18    23    24    1
    19    24    25    1
    20    25    26    1
    21    26    27    1
    22    27    28    1
    23    28    29    1
    24    29    30    1
    25    30    31    1
    26    31    32    1
    27    20    21   ar
    28    21    22   ar
    29     6     7   am
    30     7     8    2
    31     7     9    1
    32    16    10   ar
    33     9     3    1
    34    22    17   ar
    35    32    27    1
@<TRIPOS>MOLECULE
*****
 32 35 0 0 0
SMALL
GASTEIGER

@<TRIPOS>ATOM
      1 O         143.5441  140.3250  156.4406 O.2     1  UNL1       -0.2699
      2 C         143.1270  139.0684  157.1457 C.2     1  UNL1        0.2494
      3 N         143.1639  139.0015  158.6437 N.am    1  UNL1       -0.2660
      4 C         142.7469  137.7450  159.3488 C.3     1  UNL1        0.1160
      5 C         142.7838  137.6781  160.8469 C.3     1  UNL1        0.1197
      6 N         143.2377  138.8677  161.6398 N.am    1  UNL1       -0.2555
      7 C         143.6548  140.1243  160.9347 C.2     1  UNL1        0.2497
      8 O         144.1087  141.3139  161.7276 O.2     1  UNL1       -0.2727
      9 C         143.6179  140.1912  159.4367 C.3     1  UNL1        0.1799
     10 C         142.6731  137.8788  156.3527 C.ar    1  UNL1        0.0537
     11 C         141.2140  137.6799  156.0675 C.ar    1  UNL1        0.0068
     12 C         140.7601  136.4903  155.2746 C.ar    1  UNL1        0.0298
     13 C         141.7654  135.4996  154.7668 C.ar    1  UNL1        0.1401
     14 F         141.3114  134.3099  153.9739 F       1  UNL1       -0.2042
     15 C         143.2245  135.6984  155.0520 C.ar    1  UNL1        0.0298
     16 C         143.6784  136.8880  155.8449 C.ar    1  UNL1        0.0068
     17 C         143.2746  138.8008  163.1379 C.ar    1  UNL1        0.0541
     18 C         144.5334  139.1532  163.8736 C.ar    1  UNL1        0.0180
     19 C         144.5703  139.0862  165.3717 C.ar    1  UNL1        0.0382
     20 C         143.3484  138.6669  166.1340 C.ar    1  UNL1        0.1386
     21 C         142.0896  138.3146  165.3982 C.ar    1  UNL1        0.0382
     22 C         142.0527  138.3815  163.9002 C.ar    1  UNL1        0.0180
     23 O         143.3852  138.6000  167.6320 O.3     1  UNL1       -0.4754
     24 C         142.6292  139.6074  168.4466 C.3     1  UNL1        0.2068
     25 C         142.5140  141.0245  167.9684 C.3     1  UNL1        0.0646
     26 C         141.1613  141.6432  167.7750 C.3     1  UNL1        0.0759
     27 N         140.1409  140.9609  166.9129 N.3     1  UNL1       -0.2726
     28 C         139.9010  141.4406  165.5121 C.3     1  UNL1        0.0721
     29 C         138.8805  140.7583  164.6501 C.3     1  UNL1        0.0174
     30 C         138.0999  139.5963  165.1889 C.3     1  UNL1        0.0029
     31 C         138.3397  139.1166  166.5897 C.3     1  UNL1        0.0174
     32 C         139.3602  139.7989  167.4518 C.3     1  UNL1        0.0721
@<TRIPOS>BOND
     1     1     2    2
     2     2    10    1
     3    10    11   ar
     4    11    12   ar
     5    12    13   ar
     6    13    14    1
     7    13    15   ar
     8    15    16   ar
     9     2     3   am
    10     3     4    1
    11     4     5    1
    12     5     6    1
    13     6    17    1
    14    17    18   ar
    15    18    19   ar
    16    19    20   ar
    17    20    23    1
    18    23    24    1
    19    24    25    1
    20    25    26    1
    21    26    27    1
    22    27    28    1
    23    28    29    1
    24    29    30    1
    25    30    31    1
    26    31    32    1
    27    20    21   ar
    28    21    22   ar
    29     6     7   am
    30     7     8    2
    31     7     9    1
    32    16    10   ar
    33     9     3    1
    34    22    17   ar
    35    32    27    1
@<TRIPOS>MOLECULE
*****
 32 35 0 0 0
SMALL
GASTEIGER

@<TRIPOS>ATOM
      1 O         138.7961  139.5455  168.7833 O.2     1  UNL1       -0.2699
      2 C         139.9343  140.2221  168.0785 C.2     1  UNL1        0.2494
      3 N         140.1728  139.9645  166.6202 N.am    1  UNL1       -0.2660
      4 C         141.3110  140.6410  165.9154 C.3     1  UNL1        0.1160
      5 C         141.5495  140.3834  164.4570 C.3     1  UNL1        0.1197
      6 N         140.6498  139.4492  163.7035 N.am    1  UNL1       -0.2555
      7 C         139.5116  138.7727  164.4083 C.2     1  UNL1        0.2497
      8 O         138.6119  137.8385  163.6548 O.2     1  UNL1       -0.2727
      9 C         139.2731  139.0303  165.8666 C.3     1  UNL1        0.1799
     10 C         140.8340  141.1563  168.8321 C.ar    1  UNL1        0.0537
     11 C         140.3501  142.5264  169.2043 C.ar    1  UNL1        0.0068
     12 C         141.2498  143.4605  169.9578 C.ar    1  UNL1        0.0298
     13 C         142.6335  143.0245  170.3392 C.ar    1  UNL1        0.1401
     14 F         143.5332  143.9587  171.0927 F       1  UNL1       -0.2042
     15 C         143.1174  141.6544  169.9669 C.ar    1  UNL1        0.0298
     16 C         142.2177  140.7203  169.2134 C.ar    1  UNL1        0.0068
     17 C         140.8883  139.1916  162.2452 C.ar    1  UNL1        0.0541
     18 C         140.0259  139.8585  161.2149 C.ar    1  UNL1        0.0180
     19 C         140.2645  139.6009  159.7565 C.ar    1  UNL1        0.0382
     20 C         141.3654  138.6763  159.3285 C.ar    1  UNL1        0.1386
     21 C         142.2277  138.0094  160.3588 C.ar    1  UNL1        0.0382
     22 C         141.9892  138.2670  161.8171 C.ar    1  UNL1        0.0180
     23 O         141.6039  138.4187  157.8702 O.3     1  UNL1       -0.4754
     24 C         142.7947  137.6170  157.4351 C.3     1  UNL1        0.2068
     25 C         142.6550  136.1457  157.1784 C.3     1  UNL1        0.0646
     26 C         143.7056  135.4185  156.3925 C.3     1  UNL1        0.0759
     27 N         143.3110  134.3219  155.4482 N.3     1  UNL1       -0.2726
     28 C         142.4828  134.6364  154.2378 C.3     1  UNL1        0.0721
     29 C         142.0882  133.5397  153.2934 C.3     1  UNL1        0.0174
     30 C         142.5219  132.1287  153.5595 C.3     1  UNL1        0.0029
     31 C         143.3502  131.8143  154.7699 C.3     1  UNL1        0.0174
     32 C         143.7448  132.9108  155.7142 C.3     1  UNL1        0.0721
@<TRIPOS>BOND
     1     1     2    2
     2     2    10    1
     3    10    11   ar
     4    11    12   ar
     5    12    13   ar
     6    13    14    1
     7    13    15   ar
     8    15    16   ar
     9     2     3   am
    10     3     4    1
    11     4     5    1
    12     5     6    1
    13     6    17    1
    14    17    18   ar
    15    18    19   ar
    16    19    20   ar
    17    20    23    1
    18    23    24    1
    19    24    25    1
    20    25    26    1
    21    26    27    1
    22    27    28    1
    23    28    29    1
    24    29    30    1
    25    30    31    1
    26    31    32    1
    27    20    21   ar
    28    21    22   ar
    29     6     7   am
    30     7     8    2
    31     7     9    1
    32    16    10   ar
    33     9     3    1
    34    22    17   ar
    35    32    27    1
@<TRIPOS>MOLECULE
*****
 32 35 0 0 0
SMALL
GASTEIGER

@<TRIPOS>ATOM
      1 O         139.4583  138.6844  156.9922 O.2     1  UNL1       -0.2699
      2 C         138.9483  139.8556  157.7785 C.2     1  UNL1        0.2494
      3 N         138.9570  139.8132  159.2779 N.am    1  UNL1       -0.2660
      4 C         138.4470  140.9843  160.0643 C.3     1  UNL1        0.1160
      5 C         138.4557  140.9419  161.5637 C.3     1  UNL1        0.1197
      6 N         138.9743  139.7284  162.2767 N.am    1  UNL1       -0.2555
      7 C         139.4842  138.5572  161.4903 C.2     1  UNL1        0.2497
      8 O         140.0028  137.3437  162.2033 O.2     1  UNL1       -0.2727
      9 C         139.4756  138.5996  159.9910 C.3     1  UNL1        0.1799
     10 C         138.4297  141.0691  157.0655 C.ar    1  UNL1        0.0537
     11 C         139.3283  142.2493  156.8428 C.ar    1  UNL1        0.0068
     12 C         138.8097  143.4628  156.1298 C.ar    1  UNL1        0.0298
     13 C         137.3925  143.4961  155.6394 C.ar    1  UNL1        0.1401
     14 F         136.8739  144.7096  154.9264 F       1  UNL1       -0.2042
     15 C         136.4939  142.3159  155.8621 C.ar    1  UNL1        0.0298
     16 C         137.0125  141.1024  156.5751 C.ar    1  UNL1        0.0068
     17 C         138.9829  139.6860  163.7760 C.ar    1  UNL1        0.0541
     18 C         139.4143  140.8912  164.5579 C.ar    1  UNL1        0.0180
     19 C         139.4229  140.8488  166.0573 C.ar    1  UNL1        0.0382
     20 C         139.0002  139.6012  166.7748 C.ar    1  UNL1        0.1386
     21 C         138.5689  138.3960  165.9929 C.ar    1  UNL1        0.0382
     22 C         138.5602  138.4384  164.4935 C.ar    1  UNL1        0.0180
     23 O         139.0089  139.5588  168.2741 O.3     1  UNL1       -0.4754
     24 C         139.9853  140.3991  169.0426 C.3     1  UNL1        0.2068
     25 C         141.3258  139.8388  169.4158 C.3     1  UNL1        0.0646
     26 C         142.5677  140.3646  168.7592 C.3     1  UNL1        0.0759
     27 N         142.7205  140.2827  167.2693 N.3     1  UNL1       -0.2726
     28 C         142.6001  138.9587  166.5747 C.3     1  UNL1        0.0721
     29 C         142.7530  138.8768  165.0847 C.3     1  UNL1        0.0174
     30 C         143.0261  140.1189  164.2894 C.3     1  UNL1        0.0029
     31 C         143.1465  141.4429  164.9840 C.3     1  UNL1        0.0174
     32 C         142.9937  141.5248  166.4739 C.3     1  UNL1        0.0721
@<TRIPOS>BOND
     1     1     2    2
     2     2    10    1
     3    10    11   ar
     4    11    12   ar
     5    12    13   ar
     6    13    14    1
     7    13    15   ar
     8    15    16   ar
     9     2     3   am
    10     3     4    1
    11     4     5    1
    12     5     6    1
    13     6    17    1
    14    17    18   ar
    15    18    19   ar
    16    19    20   ar
    17    20    23    1
    18    23    24    1
    19    24    25    1
    20    25    26    1
    21    26    27    1
    22    27    28    1
    23    28    29    1
    24    29    30    1
    25    30    31    1
    26    31    32    1
    27    20    21   ar
    28    21    22   ar
    29     6     7   am
    30     7     8    2
    31     7     9    1
    32    16    10   ar
    33     9     3    1
    34    22    17   ar
    35    32    27    1
