@<TRIPOS>MOLECULE
*****
 30 32 0 0 0
SMALL
GASTEIGER

@<TRIPOS>ATOM
      1 C         141.9770  141.2811  166.6127 C.2     1  UNL1        0.0618
      2 C         142.6826  142.2148  167.5509 C.2     1  UNL1        0.1501
      3 F         143.9298  142.9213  167.1088 F       1  UNL1       -0.2032
      4 C         142.1411  142.4421  168.9311 C.2     1  UNL1        0.0363
      5 C         140.8938  141.7356  169.3732 C.2     1  UNL1        0.0696
      6 C         140.1882  140.8019  168.4350 C.2     1  UNL1        0.0718
      7 N         138.9486  139.9715  168.5891 N.2     1  UNL1       -0.2538
      8 C         138.7241  139.2310  167.3041 C.2     1  UNL1        0.0518
      9 C         137.5966  138.2840  167.0177 C.3     1  UNL1        0.0514
     10 C         139.8249  139.6037  166.3558 C.2     1  UNL1       -0.0198
     11 C         139.9915  139.0949  164.9547 C.3     1  UNL1        0.0283
     12 C         140.7298  140.5746  167.0548 C.3     1  UNL1        0.0976
     13 C         142.4712  141.5621  162.6851 C.3     1  UNL1        0.0922
     14 C         143.6017  140.5994  162.4720 C.3     1  UNL1        0.0231
     15 C         144.1905  139.8639  163.6392 C.3     1  UNL1        0.0232
     16 C         143.6490  140.0911  165.0195 C.3     1  UNL1        0.0907
     17 N         142.5186  141.0538  165.2325 N.pl3   1  UNL1       -0.3069
     18 C         141.9297  141.7893  164.0652 C.3     1  UNL1        0.1101
     19 C         142.3757  143.6708  161.1704 C.2     1  UNL1        0.2891
     20 O         143.4579  144.3087  161.9902 O.2     1  UNL1       -0.2607
     21 N         141.8824  142.2975  161.5178 N.am    1  UNL1       -0.2942
     22 H         141.1721  141.8789  160.9798 H       1  UNL1        0.1503
     23 C         140.6093  145.8771  157.6686 C.3     1  UNL1        0.0905
     24 C         141.1982  145.1417  158.8358 C.1     1  UNL1       -0.0810
     25 C         141.7869  144.4062  160.0032 C.1     1  UNL1       -0.0073
     26 C         140.3523  141.9629  170.7535 C.2     1  UNL1        0.2440
     27 N         139.4810  143.1519  171.0309 N.am    1  UNL1       -0.3253
     28 O         140.6822  141.0012  171.8563 O.2     1  UNL1       -0.2703
     29 H         139.2645  143.7831  170.3070 H       1  UNL1        0.1453
     30 H         139.1256  143.3011  171.9368 H       1  UNL1        0.1453
@<TRIPOS>BOND
     1    23    24    1
     2    24    25    3
     3    25    19    1
     4    19    20    2
     5    19    21   am
     6    13    21    1
     7    13    14    1
     8    14    15    1
     9    15    16    1
    10    16    17    1
    11    17     1    1
    12     1     2    2
    13     2     3    1
    14     2     4    1
    15     4     5    2
    16     5    26    1
    17    26    27   am
    18    26    28    2
    19     5     6    1
    20     6     7    2
    21     7     8    1
    22     8     9    1
    23     8    10    2
    24    10    11    1
    25    10    12    1
    26    17    18    1
    27    18    13    1
    28    12     1    1
    29    12     6    1
    30    21    22    1
    31    27    29    1
    32    27    30    1
@<TRIPOS>MOLECULE
*****
 30 32 0 0 0
SMALL
GASTEIGER

@<TRIPOS>ATOM
      1 C         141.9008  141.8806  166.3608 C.2     1  UNL1        0.0618
      2 C         143.0540  142.3568  167.1936 C.2     1  UNL1        0.1501
      3 F         144.0934  143.2553  166.5914 F       1  UNL1       -0.2032
      4 C         143.1677  141.9347  168.6283 C.2     1  UNL1        0.0363
      5 C         142.1283  141.0362  169.2305 C.2     1  UNL1        0.0696
      6 C         140.9752  140.5600  168.3977 C.2     1  UNL1        0.0718
      7 N         139.8064  139.6748  168.7145 N.2     1  UNL1       -0.2538
      8 C         138.9704  139.5498  167.4754 C.2     1  UNL1        0.0518
      9 C         137.7045  138.7562  167.3422 C.3     1  UNL1        0.0514
     10 C         139.6224  140.3579  166.3928 C.2     1  UNL1       -0.0198
     11 C         139.1230  140.5141  164.9871 C.3     1  UNL1        0.0283
     12 C         140.8615  140.9822  166.9629 C.3     1  UNL1        0.0976
     13 C         142.0795  141.7820  162.3974 C.3     1  UNL1        0.0922
     14 C         141.5597  143.1471  162.0561 C.3     1  UNL1        0.0231
     15 C         141.1537  144.0900  163.1498 C.3     1  UNL1        0.0232
     16 C         141.2673  143.6679  164.5847 C.3     1  UNL1        0.0907
     17 N         141.7871  142.3028  164.9259 N.pl3   1  UNL1       -0.3069
     18 C         142.1932  141.3599  163.8322 C.3     1  UNL1        0.1101
     19 C         141.4660  139.9365  160.6748 C.2     1  UNL1        0.2891
     20 O         140.0404  139.9766  161.1395 O.2     1  UNL1       -0.2607
     21 N         142.4856  140.8392  161.3038 N.am    1  UNL1       -0.2942
     22 H         143.4213  140.8128  160.9988 H       1  UNL1        0.1503
     23 C         142.6842  137.1077  157.3938 C.3     1  UNL1        0.0905
     24 C         142.2781  138.0506  158.4875 C.1     1  UNL1       -0.0810
     25 C         141.8720  138.9936  159.5811 C.1     1  UNL1       -0.0073
     26 C         142.2421  140.6141  170.6654 C.2     1  UNL1        0.2440
     27 N         143.3499  139.6971  171.0918 N.am    1  UNL1       -0.3253
     28 O         141.2481  141.1090  171.6738 O.2     1  UNL1       -0.2703
     29 H         144.0023  139.3722  170.4299 H       1  UNL1        0.1453
     30 H         143.4246  139.4200  172.0335 H       1  UNL1        0.1453
@<TRIPOS>BOND
     1    23    24    1
     2    24    25    3
     3    25    19    1
     4    19    20    2
     5    19    21   am
     6    13    21    1
     7    13    14    1
     8    14    15    1
     9    15    16    1
    10    16    17    1
    11    17     1    1
    12     1     2    2
    13     2     3    1
    14     2     4    1
    15     4     5    2
    16     5    26    1
    17    26    27   am
    18    26    28    2
    19     5     6    1
    20     6     7    2
    21     7     8    1
    22     8     9    1
    23     8    10    2
    24    10    11    1
    25    10    12    1
    26    17    18    1
    27    18    13    1
    28    12     1    1
    29    12     6    1
    30    21    22    1
    31    27    29    1
    32    27    30    1
@<TRIPOS>MOLECULE
*****
 30 32 0 0 0
SMALL
GASTEIGER

@<TRIPOS>ATOM
      1 C         140.4552  141.9078  166.3756 C.2     1  UNL1        0.0618
      2 C         140.1314  143.0508  167.2914 C.2     1  UNL1        0.1501
      3 F         139.1300  144.0864  166.8731 F       1  UNL1       -0.2032
      4 C         140.8088  143.1583  168.6253 C.2     1  UNL1        0.0363
      5 C         141.8102  142.1227  169.0436 C.2     1  UNL1        0.0696
      6 C         142.1340  140.9797  168.1278 C.2     1  UNL1        0.0718
      7 N         143.0711  139.8167  168.2668 N.2     1  UNL1       -0.2538
      8 C         142.9727  138.9905  167.0188 C.2     1  UNL1        0.0518
      9 C         143.7378  137.7327  166.7315 C.3     1  UNL1        0.0514
     10 C         141.9749  139.6428  166.1084 C.2     1  UNL1       -0.0198
     11 C         141.5671  139.1520  164.7509 C.3     1  UNL1        0.0283
     12 C         141.4566  140.8723  166.7938 C.3     1  UNL1        0.0976
     13 C         139.7497  142.2762  162.4876 C.3     1  UNL1        0.0922
     14 C         138.4229  141.5856  162.3736 C.3     1  UNL1        0.0231
     15 C         137.7737  141.0025  163.5936 C.3     1  UNL1        0.0232
     16 C         138.4511  141.1099  164.9276 C.3     1  UNL1        0.0907
     17 N         139.7778  141.8004  165.0416 N.pl3   1  UNL1       -0.3069
     18 C         140.4271  142.3836  163.8215 C.3     1  UNL1        0.1101
     19 C         140.0951  144.2700  160.8581 C.2     1  UNL1        0.2891
     20 O         139.1420  145.0975  161.6685 O.2     1  UNL1       -0.2607
     21 N         140.3989  142.8593  161.2676 N.am    1  UNL1       -0.2942
     22 H         141.0244  142.3162  160.7357 H       1  UNL1        0.1503
     23 C         142.0427  146.0194  157.1979 C.3     1  UNL1        0.0905
     24 C         141.3935  145.4363  158.4179 C.1     1  UNL1       -0.0810
     25 C         140.7443  144.8531  159.6380 C.1     1  UNL1       -0.0073
     26 C         142.4876  142.2302  170.3776 C.2     1  UNL1        0.2440
     27 N         143.9853  142.2306  170.4603 N.am    1  UNL1       -0.3253
     28 O         141.6672  142.3372  171.6288 O.2     1  UNL1       -0.2703
     29 H         144.5237  142.1604  169.6391 H       1  UNL1        0.1453
     30 H         144.4299  142.3012  171.3359 H       1  UNL1        0.1453
@<TRIPOS>BOND
     1    23    24    1
     2    24    25    3
     3    25    19    1
     4    19    20    2
     5    19    21   am
     6    13    21    1
     7    13    14    1
     8    14    15    1
     9    15    16    1
    10    16    17    1
    11    17     1    1
    12     1     2    2
    13     2     3    1
    14     2     4    1
    15     4     5    2
    16     5    26    1
    17    26    27   am
    18    26    28    2
    19     5     6    1
    20     6     7    2
    21     7     8    1
    22     8     9    1
    23     8    10    2
    24    10    11    1
    25    10    12    1
    26    17    18    1
    27    18    13    1
    28    12     1    1
    29    12     6    1
    30    21    22    1
    31    27    29    1
    32    27    30    1
@<TRIPOS>MOLECULE
*****
 30 32 0 0 0
SMALL
GASTEIGER

@<TRIPOS>ATOM
      1 C         141.7146  141.9775  166.2479 C.2     1  UNL1        0.0618
      2 C         142.9749  142.2819  167.0022 C.2     1  UNL1        0.1501
      3 F         143.9531  143.2797  166.4566 F       1  UNL1       -0.2032
      4 C         143.2570  141.5886  168.3020 C.2     1  UNL1        0.0363
      5 C         142.2788  140.5908  168.8477 C.2     1  UNL1        0.0696
      6 C         141.0186  140.2864  168.0933 C.2     1  UNL1        0.0718
      7 N         139.8766  139.3571  168.3804 N.2     1  UNL1       -0.2538
      8 C         138.8888  139.4762  167.2580 C.2     1  UNL1        0.0518
      9 C         137.5964  138.7244  167.1375 C.3     1  UNL1        0.0514
     10 C         139.4201  140.4790  166.2772 C.2     1  UNL1       -0.0198
     11 C         138.7524  140.9061  165.0037 C.3     1  UNL1        0.0283
     12 C         140.7364  140.9798  166.7935 C.3     1  UNL1        0.0976
     13 C         141.6963  142.8069  162.3670 C.3     1  UNL1        0.0922
     14 C         140.8683  144.0576  162.3483 C.3     1  UNL1        0.0231
     15 C         140.3224  144.6149  163.6295 C.3     1  UNL1        0.0232
     16 C         140.6045  143.9215  164.9294 C.3     1  UNL1        0.0907
     17 N         141.4325  142.6709  164.9481 N.pl3   1  UNL1       -0.3069
     18 C         141.9784  142.1136  163.6668 C.3     1  UNL1        0.1101
     19 C         143.5942  142.6781  160.5974 C.2     1  UNL1        0.2891
     20 O         144.4004  143.6637  161.3903 O.2     1  UNL1       -0.2607
     21 N         142.2422  142.2497  161.0858 N.am    1  UNL1       -0.2942
     22 H         141.7130  141.6028  160.5654 H       1  UNL1        0.1503
     23 C         145.2318  141.0064  156.7537 C.3     1  UNL1        0.0905
     24 C         144.6859  141.5636  158.0349 C.1     1  UNL1       -0.0810
     25 C         144.1401  142.1208  159.3162 C.1     1  UNL1       -0.0073
     26 C         142.5610  139.8974  170.1476 C.2     1  UNL1        0.2440
     27 N         142.3440  140.6185  171.4448 N.am    1  UNL1       -0.3253
     28 O         143.0603  138.4829  170.1501 O.2     1  UNL1       -0.2703
     29 H         142.0163  141.5469  171.4431 H       1  UNL1        0.1453
     30 H         142.5292  140.1635  172.2979 H       1  UNL1        0.1453
@<TRIPOS>BOND
     1    23    24    1
     2    24    25    3
     3    25    19    1
     4    19    20    2
     5    19    21   am
     6    13    21    1
     7    13    14    1
     8    14    15    1
     9    15    16    1
    10    16    17    1
    11    17     1    1
    12     1     2    2
    13     2     3    1
    14     2     4    1
    15     4     5    2
    16     5    26    1
    17    26    27   am
    18    26    28    2
    19     5     6    1
    20     6     7    2
    21     7     8    1
    22     8     9    1
    23     8    10    2
    24    10    11    1
    25    10    12    1
    26    17    18    1
    27    18    13    1
    28    12     1    1
    29    12     6    1
    30    21    22    1
    31    27    29    1
    32    27    30    1
@<TRIPOS>MOLECULE
*****
 30 32 0 0 0
SMALL
GASTEIGER

@<TRIPOS>ATOM
      1 C         140.6644  142.7039  164.9103 C.2     1  UNL1        0.0618
      2 C         139.8523  143.9619  164.9986 C.2     1  UNL1        0.1501
      3 F         139.3639  144.4473  166.3313 F       1  UNL1       -0.2032
      4 C         139.5286  144.7345  163.7544 C.2     1  UNL1        0.0363
      5 C         140.0169  144.2491  162.4217 C.2     1  UNL1        0.0696
      6 C         140.8290  142.9910  162.3334 C.2     1  UNL1        0.0718
      7 N         141.4431  142.2725  161.1687 N.2     1  UNL1       -0.2538
      8 C         142.1463  141.0558  161.6931 C.2     1  UNL1        0.0518
      9 C         142.8971  140.0492  160.8728 C.3     1  UNL1        0.0514
     10 C         141.9669  141.0224  163.1820 C.2     1  UNL1       -0.0198
     11 C         142.5068  139.9765  164.1119 C.3     1  UNL1        0.0283
     12 C         141.1528  142.2185  163.5777 C.3     1  UNL1        0.0976
     13 C         140.2319  140.4020  168.1141 C.3     1  UNL1        0.0922
     14 C         141.6355  140.3861  168.6433 C.3     1  UNL1        0.0231
     15 C         142.7152  141.1428  167.9281 C.3     1  UNL1        0.0232
     16 C         142.3916  141.9154  166.6837 C.3     1  UNL1        0.0907
     17 N         140.9881  141.9313  166.1546 N.pl3   1  UNL1       -0.3069
     18 C         139.9083  141.1746  166.8698 C.3     1  UNL1        0.1101
     19 C         138.4843  140.2466  170.0303 C.2     1  UNL1        0.2891
     20 O         138.8963  141.6047  170.5161 O.2     1  UNL1       -0.2607
     21 N         139.1522  139.6453  168.8293 N.am    1  UNL1       -0.2942
     22 H         138.8818  138.7540  168.5104 H       1  UNL1        0.1503
     23 C         135.2450  137.9765  172.1758 C.3     1  UNL1        0.0905
     24 C         136.3247  138.7332  171.4606 C.1     1  UNL1       -0.0810
     25 C         137.4046  139.4900  170.7455 C.1     1  UNL1       -0.0073
     26 C         139.6932  145.0218  161.1774 C.2     1  UNL1        0.2440
     27 N         139.7117  144.3368  159.8431 N.am    1  UNL1       -0.3253
     28 O         139.3508  146.4794  161.2675 O.2     1  UNL1       -0.2703
     29 H         139.9364  143.3801  159.7839 H       1  UNL1        0.1453
     30 H         139.4992  144.8439  159.0264 H       1  UNL1        0.1453
@<TRIPOS>BOND
     1    23    24    1
     2    24    25    3
     3    25    19    1
     4    19    20    2
     5    19    21   am
     6    13    21    1
     7    13    14    1
     8    14    15    1
     9    15    16    1
    10    16    17    1
    11    17     1    1
    12     1     2    2
    13     2     3    1
    14     2     4    1
    15     4     5    2
    16     5    26    1
    17    26    27   am
    18    26    28    2
    19     5     6    1
    20     6     7    2
    21     7     8    1
    22     8     9    1
    23     8    10    2
    24    10    11    1
    25    10    12    1
    26    17    18    1
    27    18    13    1
    28    12     1    1
    29    12     6    1
    30    21    22    1
    31    27    29    1
    32    27    30    1
@<TRIPOS>MOLECULE
*****
 30 32 0 0 0
SMALL
GASTEIGER

@<TRIPOS>ATOM
      1 C         140.1150  140.6460  166.3093 C.2     1  UNL1        0.0618
      2 C         139.4845  139.9479  167.4776 C.2     1  UNL1        0.1501
      3 F         138.2017  139.1918  167.2964 F       1  UNL1       -0.2032
      4 C         140.1367  140.0059  168.8271 C.2     1  UNL1        0.0363
      5 C         141.4196  140.7619  169.0083 C.2     1  UNL1        0.0696
      6 C         142.0501  141.4600  167.8399 C.2     1  UNL1        0.0718
      7 N         143.3023  142.2764  167.7149 N.2     1  UNL1       -0.2538
      8 C         143.4239  142.7229  166.2881 C.2     1  UNL1        0.0518
      9 C         144.5285  143.5625  165.7181 C.3     1  UNL1        0.0514
     10 C         142.2469  142.1826  165.5313 C.2     1  UNL1       -0.0198
     11 C         141.9679  142.3869  164.0717 C.3     1  UNL1        0.0283
     12 C         141.3978  141.4020  166.4904 C.3     1  UNL1        0.0976
     13 C         139.4102  139.6883  162.5230 C.3     1  UNL1        0.0922
     14 C         138.1583  140.4719  162.2607 C.3     1  UNL1        0.0231
     15 C         137.5587  141.3135  163.3479 C.3     1  UNL1        0.0232
     16 C         138.2109  141.3716  164.6975 C.3     1  UNL1        0.0907
     17 N         139.4628  140.5880  164.9597 N.pl3   1  UNL1       -0.3069
     18 C         140.0624  139.7463  163.8724 C.3     1  UNL1        0.1101
     19 C         140.9986  139.4476  160.4812 C.2     1  UNL1        0.2891
     20 O         141.3878  140.8901  160.6139 O.2     1  UNL1       -0.2607
     21 N         140.0098  138.8467  161.4357 N.am    1  UNL1       -0.2942
     22 H         139.7543  137.8999  161.3486 H       1  UNL1        0.1503
     23 C         142.7974  136.9227  157.2193 C.3     1  UNL1        0.0905
     24 C         142.1979  137.7643  158.3066 C.1     1  UNL1       -0.0810
     25 C         141.5982  138.6059  159.3939 C.1     1  UNL1       -0.0073
     26 C         142.0718  140.8199  170.3579 C.2     1  UNL1        0.2440
     27 N         143.5630  140.7083  170.4756 N.am    1  UNL1       -0.3253
     28 O         141.2328  140.9894  171.5896 O.2     1  UNL1       -0.2703
     29 H         144.1137  140.5970  169.6671 H       1  UNL1        0.1453
     30 H         143.9910  140.7463  171.3614 H       1  UNL1        0.1453
@<TRIPOS>BOND
     1    23    24    1
     2    24    25    3
     3    25    19    1
     4    19    20    2
     5    19    21   am
     6    13    21    1
     7    13    14    1
     8    14    15    1
     9    15    16    1
    10    16    17    1
    11    17     1    1
    12     1     2    2
    13     2     3    1
    14     2     4    1
    15     4     5    2
    16     5    26    1
    17    26    27   am
    18    26    28    2
    19     5     6    1
    20     6     7    2
    21     7     8    1
    22     8     9    1
    23     8    10    2
    24    10    11    1
    25    10    12    1
    26    17    18    1
    27    18    13    1
    28    12     1    1
    29    12     6    1
    30    21    22    1
    31    27    29    1
    32    27    30    1
@<TRIPOS>MOLECULE
*****
 30 32 0 0 0
SMALL
GASTEIGER

@<TRIPOS>ATOM
      1 C         140.4950  140.0163  166.4093 C.2     1  UNL1        0.0618
      2 C         139.5015  139.7730  167.5064 C.2     1  UNL1        0.1501
      3 F         138.4292  138.7387  167.3313 F       1  UNL1       -0.2032
      4 C         139.5801  140.5639  168.7784 C.2     1  UNL1        0.0363
      5 C         140.6524  141.5982  168.9534 C.2     1  UNL1        0.0696
      6 C         141.6460  141.8414  167.8563 C.2     1  UNL1        0.0718
      7 N         142.8046  142.7873  167.7431 N.2     1  UNL1       -0.2538
      8 C         143.4420  142.5809  166.4011 C.2     1  UNL1        0.0518
      9 C         144.6348  143.3185  165.8687 C.3     1  UNL1        0.0514
     10 C         142.6773  141.5075  165.6848 C.2     1  UNL1       -0.0198
     11 C         142.9711  140.9832  164.3105 C.3     1  UNL1        0.0283
     12 C         141.5673  141.0505  166.5842 C.3     1  UNL1        0.0976
     13 C         139.5391  138.9546  162.7067 C.3     1  UNL1        0.0922
     14 C         140.2589  137.6434  162.5930 C.3     1  UNL1        0.0231
     15 C         141.0573  137.1233  163.7513 C.3     1  UNL1        0.0232
     16 C         141.1361  137.9142  165.0235 C.3     1  UNL1        0.0907
     17 N         140.4163  139.2253  165.1372 N.pl3   1  UNL1       -0.3069
     18 C         139.6178  139.7455  163.9787 C.3     1  UNL1        0.1101
     19 C         139.4402  140.0634  160.3592 C.2     1  UNL1        0.2891
     20 O         140.9383  140.1319  160.3285 O.2     1  UNL1       -0.2607
     21 N         138.7406  139.4747  161.5483 N.am    1  UNL1       -0.2942
     22 H         137.7573  139.4297  161.5685 H       1  UNL1        0.1503
     23 C         137.0448  141.6237  156.8839 C.3     1  UNL1        0.0905
     24 C         137.8433  141.1036  158.0423 C.1     1  UNL1       -0.0810
     25 C         138.6417  140.5835  159.2008 C.1     1  UNL1       -0.0073
     26 C         140.7310  142.3891  170.2256 C.2     1  UNL1        0.2440
     27 N         140.9644  143.8700  170.1748 N.am    1  UNL1       -0.3253
     28 O         140.5763  141.6991  171.5484 O.2     1  UNL1       -0.2703
     29 H         141.0659  144.3228  169.3065 H       1  UNL1        0.1453
     30 H         141.0160  144.3891  171.0097 H       1  UNL1        0.1453
@<TRIPOS>BOND
     1    23    24    1
     2    24    25    3
     3    25    19    1
     4    19    20    2
     5    19    21   am
     6    13    21    1
     7    13    14    1
     8    14    15    1
     9    15    16    1
    10    16    17    1
    11    17     1    1
    12     1     2    2
    13     2     3    1
    14     2     4    1
    15     4     5    2
    16     5    26    1
    17    26    27   am
    18    26    28    2
    19     5     6    1
    20     6     7    2
    21     7     8    1
    22     8     9    1
    23     8    10    2
    24    10    11    1
    25    10    12    1
    26    17    18    1
    27    18    13    1
    28    12     1    1
    29    12     6    1
    30    21    22    1
    31    27    29    1
    32    27    30    1
@<TRIPOS>MOLECULE
*****
 30 32 0 0 0
SMALL
GASTEIGER

@<TRIPOS>ATOM
      1 C         141.6672  140.4337  166.2029 C.2     1  UNL1        0.0618
      2 C         142.4556  140.1319  167.4428 C.2     1  UNL1        0.1501
      3 F         143.3049  138.8972  167.5095 F       1  UNL1       -0.2032
      4 C         142.3947  141.0646  168.6158 C.2     1  UNL1        0.0363
      5 C         141.5454  142.2993  168.5491 C.2     1  UNL1        0.0696
      6 C         140.7570  142.6011  167.3092 C.2     1  UNL1        0.0718
      7 N         139.8389  143.7330  166.9542 N.2     1  UNL1       -0.2538
      8 C         139.3325  143.4997  165.5617 C.2     1  UNL1        0.0518
      9 C         138.3869  144.3867  164.8073 C.3     1  UNL1        0.0514
     10 C         139.9375  142.2236  165.0561 C.2     1  UNL1       -0.0198
     11 C         139.7032  141.6106  163.7073 C.3     1  UNL1        0.0283
     12 C         140.8179  141.6683  166.1361 C.3     1  UNL1        0.0976
     13 C         142.6143  138.9257  162.6562 C.3     1  UNL1        0.0922
     14 C         141.8500  137.6352  162.6835 C.3     1  UNL1        0.0231
     15 C         141.0248  137.2777  163.8840 C.3     1  UNL1        0.0232
     16 C         140.9638  138.2105  165.0572 C.3     1  UNL1        0.0907
     17 N         141.7281  139.5008  165.0298 N.pl3   1  UNL1       -0.3069
     18 C         142.5534  139.8584  163.8292 C.3     1  UNL1        0.1101
     19 C         142.8159  140.0252  160.3109 C.2     1  UNL1        0.2891
     20 O         141.3670  140.4096  160.3666 O.2     1  UNL1       -0.2607
     21 N         143.4395  139.2833  161.4557 N.am    1  UNL1       -0.2942
     22 H         144.3904  139.0310  161.4192 H       1  UNL1        0.1503
     23 C         145.2915  141.0980  156.7094 C.3     1  UNL1        0.0905
     24 C         144.4663  140.7404  157.9099 C.1     1  UNL1       -0.0810
     25 C         143.6411  140.3828  159.1104 C.1     1  UNL1       -0.0073
     26 C         141.4845  143.2321  169.7222 C.2     1  UNL1        0.2440
     27 N         140.1803  143.8613  170.1132 N.am    1  UNL1       -0.3253
     28 O         142.7280  143.5356  170.5043 O.2     1  UNL1       -0.2703
     29 H         139.3642  143.6621  169.5999 H       1  UNL1        0.1453
     30 H         140.1403  144.4735  170.8832 H       1  UNL1        0.1453
@<TRIPOS>BOND
     1    23    24    1
     2    24    25    3
     3    25    19    1
     4    19    20    2
     5    19    21   am
     6    13    21    1
     7    13    14    1
     8    14    15    1
     9    15    16    1
    10    16    17    1
    11    17     1    1
    12     1     2    2
    13     2     3    1
    14     2     4    1
    15     4     5    2
    16     5    26    1
    17    26    27   am
    18    26    28    2
    19     5     6    1
    20     6     7    2
    21     7     8    1
    22     8     9    1
    23     8    10    2
    24    10    11    1
    25    10    12    1
    26    17    18    1
    27    18    13    1
    28    12     1    1
    29    12     6    1
    30    21    22    1
    31    27    29    1
    32    27    30    1
@<TRIPOS>MOLECULE
*****
 30 32 0 0 0
SMALL
GASTEIGER

@<TRIPOS>ATOM
      1 C         139.5912  142.2352  163.8085 C.2     1  UNL1        0.0618
      2 C         138.3216  141.4512  163.6559 C.2     1  UNL1        0.1501
      3 F         137.4630  141.6432  162.4410 F       1  UNL1       -0.2032
      4 C         137.9105  140.4752  164.7182 C.2     1  UNL1        0.0363
      5 C         138.7692  140.2832  165.9331 C.2     1  UNL1        0.0696
      6 C         140.0388  141.0672  166.0857 C.2     1  UNL1        0.0718
      7 N         141.0804  141.0906  167.1648 N.2     1  UNL1       -0.2538
      8 C         142.1351  142.0812  166.7694 C.2     1  UNL1        0.0518
      9 C         143.3639  142.4230  167.5589 C.3     1  UNL1        0.0514
     10 C         141.7455  142.6699  165.4460 C.2     1  UNL1       -0.0198
     11 C         142.5161  143.7037  164.6797 C.3     1  UNL1        0.0283
     12 C         140.4498  142.0432  165.0234 C.3     1  UNL1        0.0976
     13 C         141.2813  143.7363  160.5466 C.3     1  UNL1        0.0922
     14 C         140.8243  145.1631  160.6215 C.3     1  UNL1        0.0231
     15 C         139.9564  145.6139  161.7588 C.3     1  UNL1        0.0232
     16 C         139.5453  144.6379  162.8212 C.3     1  UNL1        0.0907
     17 N         140.0022  143.2112  162.7462 N.pl3   1  UNL1       -0.3069
     18 C         140.8703  142.7604  161.6088 C.3     1  UNL1        0.1101
     19 C         143.6004  142.9882  159.6455 C.2     1  UNL1        0.2891
     20 O         144.1836  143.1416  161.0189 O.2     1  UNL1       -0.2607
     21 N         142.1493  143.2856  159.4093 N.am    1  UNL1       -0.2942
     22 H         141.7665  143.1850  158.5078 H       1  UNL1        0.1503
     23 C         146.2044  141.6359  156.2336 C.3     1  UNL1        0.0905
     24 C         145.3364  142.0867  157.3709 C.1     1  UNL1       -0.0810
     25 C         144.4684  142.5375  158.5082 C.1     1  UNL1       -0.0073
     26 C         138.3580  139.3071  166.9954 C.2     1  UNL1        0.2440
     27 N         138.8393  139.4857  168.4048 N.am    1  UNL1       -0.3253
     28 O         137.4657  138.1525  166.6481 O.2     1  UNL1       -0.2703
     29 H         139.4250  140.2435  168.6326 H       1  UNL1        0.1453
     30 H         138.5695  138.8451  169.1020 H       1  UNL1        0.1453
@<TRIPOS>BOND
     1    23    24    1
     2    24    25    3
     3    25    19    1
     4    19    20    2
     5    19    21   am
     6    13    21    1
     7    13    14    1
     8    14    15    1
     9    15    16    1
    10    16    17    1
    11    17     1    1
    12     1     2    2
    13     2     3    1
    14     2     4    1
    15     4     5    2
    16     5    26    1
    17    26    27   am
    18    26    28    2
    19     5     6    1
    20     6     7    2
    21     7     8    1
    22     8     9    1
    23     8    10    2
    24    10    11    1
    25    10    12    1
    26    17    18    1
    27    18    13    1
    28    12     1    1
    29    12     6    1
    30    21    22    1
    31    27    29    1
    32    27    30    1
