@<TRIPOS>MOLECULE
*****
 30 33 0 0 0
SMALL
GASTEIGER

@<TRIPOS>ATOM
      1 C         139.6052  140.2640  167.7120 C.ar    1  UNL1       -0.0065
      2 C         140.5285  141.2595  167.0743 C.ar    1  UNL1       -0.0033
      3 C         140.9415  141.0893  165.6424 C.ar    1  UNL1       -0.0048
      4 C         140.4313  139.9236  164.8482 C.ar    1  UNL1       -0.0245
      5 C         139.5081  138.9281  165.4859 C.ar    1  UNL1       -0.0263
      6 C         139.0951  139.0984  166.9178 C.ar    1  UNL1       -0.0075
      7 C         138.9978  137.7624  164.6916 C.3     1  UNL1        0.0277
      8 C         139.4109  137.5921  163.2597 C.3     1  UNL1        0.0248
      9 C         140.3341  138.5877  162.6220 C.3     1  UNL1        0.0801
     10 C         140.8443  139.7533  163.4162 C.3     1  UNL1        0.0458
     11 N         140.7472  138.4174  161.1901 N.am    1  UNL1       -0.2783
     12 C         139.7447  138.6149  160.0918 C.3     1  UNL1        0.1107
     13 C         140.1577  138.4447  158.6599 C.3     1  UNL1        0.0942
     14 N         141.5732  138.0770  158.3262 N.3     1  UNL1       -0.2635
     15 C         142.5756  137.8795  159.4245 C.3     1  UNL1        0.1587
     16 C         142.1626  138.0497  160.8564 C.2     1  UNL1        0.2420
     17 O         143.1649  137.8522  161.9546 O.2     1  UNL1       -0.2734
     18 C         141.9862  137.9067  156.8943 C.3     1  UNL1        0.0734
     19 C         143.0803  136.9440  156.5386 C.3     1  UNL1        0.0281
     20 C         142.7732  135.4842  156.3825 C.3     1  UNL1        0.0491
     21 C         141.7600  134.8912  155.4487 C.3     1  UNL1        0.0117
     22 C         141.7859  133.4015  155.6218 C.3     1  UNL1        0.0125
     23 C         142.8152  133.0736  156.6625 C.3     1  UNL1        0.0576
     24 S         143.4253  134.3608  157.1326 S.3     1  UNL1       -0.1411
     25 C         139.1922  140.4343  169.1440 C.3     1  UNL1        0.0991
     26 N         140.0698  141.1962  170.0922 N.3     1  UNL1       -0.2690
     27 C         142.3237  139.9145  169.9268 C.3     1  UNL1        0.0188
     28 C         141.2269  140.5118  170.7576 C.3     1  UNL1        0.0724
     29 C         139.7904  142.6426  170.3750 C.3     1  UNL1        0.0724
     30 C         140.6819  143.7045  169.8026 C.3     1  UNL1        0.0188
@<TRIPOS>BOND
     1    27    28    1
     2    28    26    1
     3    26    29    1
     4    29    30    1
     5    26    25    1
     6    25     1    1
     7     1     2   ar
     8     2     3   ar
     9     3     4   ar
    10     4     5   ar
    11     5     6   ar
    12     5     7    1
    13     7     8    1
    14     8     9    1
    15     9    11    1
    16    11    12    1
    17    12    13    1
    18    13    14    1
    19    14    18    1
    20    18    19    1
    21    19    20    1
    22    20    21    1
    23    21    22    1
    24    22    23    1
    25    23    24    1
    26    14    15    1
    27    15    16    1
    28    16    17    2
    29     9    10    1
    30     6     1   ar
    31    16    11   am
    32    10     4    1
    33    24    20    1
@<TRIPOS>MOLECULE
*****
 30 33 0 0 0
SMALL
GASTEIGER

@<TRIPOS>ATOM
      1 C         139.5968  140.3788  167.7983 C.ar    1  UNL1       -0.0065
      2 C         140.3778  141.4523  167.1001 C.ar    1  UNL1       -0.0033
      3 C         140.7484  141.2911  165.6556 C.ar    1  UNL1       -0.0048
      4 C         140.3380  140.0564  164.9093 C.ar    1  UNL1       -0.0245
      5 C         139.5570  138.9829  165.6075 C.ar    1  UNL1       -0.0263
      6 C         139.1864  139.1441  167.0520 C.ar    1  UNL1       -0.0075
      7 C         139.1465  137.7481  164.8612 C.3     1  UNL1        0.0277
      8 C         139.5171  137.5869  163.4167 C.3     1  UNL1        0.0248
      9 C         140.2982  138.6604  162.7184 C.3     1  UNL1        0.0801
     10 C         140.7086  139.8951  163.4647 C.3     1  UNL1        0.0458
     11 N         140.6688  138.4992  161.2739 N.am    1  UNL1       -0.2783
     12 C         142.0568  138.0713  160.8990 C.3     1  UNL1        0.1107
     13 C         142.4274  137.9101  159.4544 C.3     1  UNL1        0.0942
     14 N         141.4100  138.1768  158.3849 N.3     1  UNL1       -0.2635
     15 C         140.0221  138.6047  158.7598 C.3     1  UNL1        0.1587
     16 C         139.6515  138.7659  160.2044 C.2     1  UNL1        0.2420
     17 O         138.2637  139.1938  160.5793 O.2     1  UNL1       -0.2734
     18 C         141.7806  138.0156  156.9403 C.3     1  UNL1        0.0734
     19 C         142.9210  137.1210  156.5540 C.3     1  UNL1        0.0281
     20 C         142.6995  135.6448  156.4065 C.3     1  UNL1        0.0491
     21 C         143.3775  134.5678  157.2005 C.3     1  UNL1        0.0117
     22 C         142.8581  133.2437  156.7238 C.3     1  UNL1        0.0125
     23 C         141.8592  133.5024  155.6351 C.3     1  UNL1        0.0576
     24 S         141.7612  134.9863  155.4390 S.3     1  UNL1       -0.1411
     25 C         139.2262  140.5400  169.2429 C.3     1  UNL1        0.0991
     26 N         140.1331  141.2931  170.1703 N.3     1  UNL1       -0.2690
     27 C         142.0528  139.5559  169.9536 C.3     1  UNL1        0.0188
     28 C         141.3490  140.6231  170.7384 C.3     1  UNL1        0.0724
     29 C         139.8243  142.7163  170.5297 C.3     1  UNL1        0.0724
     30 C         140.5988  143.8346  169.8976 C.3     1  UNL1        0.0188
@<TRIPOS>BOND
     1    27    28    1
     2    28    26    1
     3    26    29    1
     4    29    30    1
     5    26    25    1
     6    25     1    1
     7     1     2   ar
     8     2     3   ar
     9     3     4   ar
    10     4     5   ar
    11     5     6   ar
    12     5     7    1
    13     7     8    1
    14     8     9    1
    15     9    11    1
    16    11    12    1
    17    12    13    1
    18    13    14    1
    19    14    18    1
    20    18    19    1
    21    19    20    1
    22    20    21    1
    23    21    22    1
    24    22    23    1
    25    23    24    1
    26    14    15    1
    27    15    16    1
    28    16    17    2
    29     9    10    1
    30     6     1   ar
    31    16    11   am
    32    10     4    1
    33    24    20    1
@<TRIPOS>MOLECULE
*****
 30 33 0 0 0
SMALL
GASTEIGER

@<TRIPOS>ATOM
      1 C         142.6557  140.8368  167.7663 C.ar    1  UNL1       -0.0065
      2 C         142.9484  141.9600  166.8161 C.ar    1  UNL1       -0.0033
      3 C         142.8225  141.7433  165.3372 C.ar    1  UNL1       -0.0048
      4 C         142.4040  140.4035  164.8084 C.ar    1  UNL1       -0.0245
      5 C         142.1113  139.2803  165.7586 C.ar    1  UNL1       -0.0263
      6 C         142.2372  139.4970  167.2375 C.ar    1  UNL1       -0.0075
      7 C         141.6928  137.9404  165.2298 C.3     1  UNL1        0.0277
      8 C         141.5669  137.7237  163.7509 C.3     1  UNL1        0.0248
      9 C         141.8596  138.8469  162.8007 C.3     1  UNL1        0.0801
     10 C         142.2782  140.1868  163.3295 C.3     1  UNL1        0.0458
     11 N         141.7338  138.6302  161.3218 N.am    1  UNL1       -0.2783
     12 C         140.4054  138.8082  160.6481 C.3     1  UNL1        0.1107
     13 C         140.2795  138.5915  159.1692 C.3     1  UNL1        0.0942
     14 N         141.4820  138.1969  158.3640 N.3     1  UNL1       -0.2635
     15 C         142.8103  138.0189  159.0377 C.3     1  UNL1        0.1587
     16 C         142.9362  138.2356  160.5166 C.2     1  UNL1        0.2420
     17 O         144.2645  138.0577  161.1903 O.2     1  UNL1       -0.2734
     18 C         141.3562  137.9802  156.8851 C.3     1  UNL1        0.0734
     19 C         142.3886  137.1734  156.1547 C.3     1  UNL1        0.0281
     20 C         142.2254  135.6880  156.0246 C.3     1  UNL1        0.0491
     21 C         141.1962  134.9837  155.1910 C.3     1  UNL1        0.0117
     22 C         141.3975  133.5065  155.3564 C.3     1  UNL1        0.0125
     23 C         142.5511  133.2978  156.2921 C.3     1  UNL1        0.0576
     24 S         143.0627  134.6460  156.7051 S.3     1  UNL1       -0.1411
     25 C         142.7816  141.0535  169.2452 C.3     1  UNL1        0.0991
     26 N         141.6212  141.5969  170.0250 N.3     1  UNL1       -0.2690
     27 C         140.3823  143.8386  169.5892 C.3     1  UNL1        0.0188
     28 C         141.4931  143.0748  170.2471 C.3     1  UNL1        0.0724
     29 C         140.5889  140.6624  170.5828 C.3     1  UNL1        0.0724
     30 C         139.3771  140.3125  169.7709 C.3     1  UNL1        0.0188
@<TRIPOS>BOND
     1    27    28    1
     2    28    26    1
     3    26    29    1
     4    29    30    1
     5    26    25    1
     6    25     1    1
     7     1     2   ar
     8     2     3   ar
     9     3     4   ar
    10     4     5   ar
    11     5     6   ar
    12     5     7    1
    13     7     8    1
    14     8     9    1
    15     9    11    1
    16    11    12    1
    17    12    13    1
    18    13    14    1
    19    14    18    1
    20    18    19    1
    21    19    20    1
    22    20    21    1
    23    21    22    1
    24    22    23    1
    25    23    24    1
    26    14    15    1
    27    15    16    1
    28    16    17    2
    29     9    10    1
    30     6     1   ar
    31    16    11   am
    32    10     4    1
    33    24    20    1
@<TRIPOS>MOLECULE
*****
 30 33 0 0 0
SMALL
GASTEIGER

@<TRIPOS>ATOM
      1 C         139.1800  139.7885  167.7146 C.ar    1  UNL1       -0.0065
      2 C         138.2618  138.8047  167.0520 C.ar    1  UNL1       -0.0033
      3 C         138.4994  138.3987  165.6277 C.ar    1  UNL1       -0.0048
      4 C         139.6552  138.9764  164.8660 C.ar    1  UNL1       -0.0245
      5 C         140.5734  139.9602  165.5286 C.ar    1  UNL1       -0.0263
      6 C         140.3358  140.3662  166.9529 C.ar    1  UNL1       -0.0075
      7 C         141.7293  140.5380  164.7668 C.3     1  UNL1        0.0277
      8 C         141.9669  140.1319  163.3425 C.3     1  UNL1        0.0248
      9 C         141.0487  139.1481  162.6799 C.3     1  UNL1        0.0801
     10 C         139.8928  138.5704  163.4417 C.3     1  UNL1        0.0458
     11 N         141.2863  138.7420  161.2556 N.am    1  UNL1       -0.2783
     12 C         142.5050  137.9447  160.8964 C.3     1  UNL1        0.1107
     13 C         142.7426  137.5386  159.4721 C.3     1  UNL1        0.0942
     14 N         141.7615  137.9299  158.4070 N.3     1  UNL1       -0.2635
     15 C         140.5428  138.7272  158.7662 C.3     1  UNL1        0.1587
     16 C         140.3052  139.1333  160.1906 C.2     1  UNL1        0.2420
     17 O         139.0865  139.9306  160.5498 O.2     1  UNL1       -0.2734
     18 C         141.9991  137.5239  156.9827 C.3     1  UNL1        0.0734
     19 C         143.1488  136.6228  156.6415 C.3     1  UNL1        0.0281
     20 C         142.9379  135.1406  156.5480 C.3     1  UNL1        0.0491
     21 C         142.1311  134.4291  155.5027 C.3     1  UNL1        0.0117
     22 C         142.1913  132.9585  155.7919 C.3     1  UNL1        0.0125
     23 C         143.0355  132.7611  157.0161 C.3     1  UNL1        0.0576
     24 S         143.4969  134.1098  157.4833 S.3     1  UNL1       -0.1411
     25 C         138.9424  140.1946  169.1389 C.3     1  UNL1        0.0991
     26 N         140.0483  140.8225  169.9342 N.3     1  UNL1       -0.2690
     27 C         142.5864  140.2698  169.8838 C.3     1  UNL1        0.0188
     28 C         141.2056  139.9885  170.3980 C.3     1  UNL1        0.0724
     29 C         139.9969  142.2845  170.2659 C.3     1  UNL1        0.0724
     30 C         140.4526  143.2985  169.2588 C.3     1  UNL1        0.0188
@<TRIPOS>BOND
     1    27    28    1
     2    28    26    1
     3    26    29    1
     4    29    30    1
     5    26    25    1
     6    25     1    1
     7     1     2   ar
     8     2     3   ar
     9     3     4   ar
    10     4     5   ar
    11     5     6   ar
    12     5     7    1
    13     7     8    1
    14     8     9    1
    15     9    11    1
    16    11    12    1
    17    12    13    1
    18    13    14    1
    19    14    18    1
    20    18    19    1
    21    19    20    1
    22    20    21    1
    23    21    22    1
    24    22    23    1
    25    23    24    1
    26    14    15    1
    27    15    16    1
    28    16    17    2
    29     9    10    1
    30     6     1   ar
    31    16    11   am
    32    10     4    1
    33    24    20    1
@<TRIPOS>MOLECULE
*****
 30 33 0 0 0
SMALL
GASTEIGER

@<TRIPOS>ATOM
      1 C         139.3729  140.1860  168.1060 C.ar    1  UNL1       -0.0065
      2 C         138.3808  139.2118  167.5433 C.ar    1  UNL1       -0.0033
      3 C         138.1286  139.1675  166.0653 C.ar    1  UNL1       -0.0048
      4 C         138.8686  140.0973  165.1500 C.ar    1  UNL1       -0.0245
      5 C         139.8607  141.0714  165.7127 C.ar    1  UNL1       -0.0263
      6 C         140.1129  141.1158  167.1906 C.ar    1  UNL1       -0.0075
      7 C         140.6007  142.0013  164.7973 C.3     1  UNL1        0.0277
      8 C         140.3486  141.9570  163.3193 C.3     1  UNL1        0.0248
      9 C         139.3564  140.9827  162.7567 C.3     1  UNL1        0.0801
     10 C         138.6164  140.0529  163.6720 C.3     1  UNL1        0.0458
     11 N         139.1042  140.9384  161.2787 N.am    1  UNL1       -0.2783
     12 C         139.5493  139.7511  160.4772 C.3     1  UNL1        0.1107
     13 C         139.2971  139.7067  158.9992 C.3     1  UNL1        0.0942
     14 N         138.5999  140.8496  158.3227 N.3     1  UNL1       -0.2635
     15 C         138.1548  142.0369  159.1242 C.3     1  UNL1        0.1587
     16 C         138.4069  142.0812  160.6022 C.2     1  UNL1        0.2420
     17 O         137.9619  143.2684  161.4037 O.2     1  UNL1       -0.2734
     18 C         138.3477  140.8053  156.8447 C.3     1  UNL1        0.0734
     19 C         137.5084  141.8653  156.1949 C.3     1  UNL1        0.0281
     20 C         136.2146  141.4957  155.5320 C.3     1  UNL1        0.0491
     21 C         135.7534  141.9556  154.1808 C.3     1  UNL1        0.0117
     22 C         134.4086  141.3456  153.9175 C.3     1  UNL1        0.0125
     23 C         134.0386  140.5086  155.1060 C.3     1  UNL1        0.0576
     24 S         135.1548  140.6014  156.1038 S.3     1  UNL1       -0.1411
     25 C         139.6251  140.2304  169.5840 C.3     1  UNL1        0.0991
     26 N         140.6209  141.2011  170.1461 N.3     1  UNL1       -0.2690
     27 C         143.0826  141.3305  169.3255 C.3     1  UNL1        0.0188
     28 C         142.0599  140.8020  170.2873 C.3     1  UNL1        0.0724
     29 C         140.1777  142.5709  170.5671 C.3     1  UNL1        0.0724
     30 C         140.4740  143.7557  169.6962 C.3     1  UNL1        0.0188
@<TRIPOS>BOND
     1    27    28    1
     2    28    26    1
     3    26    29    1
     4    29    30    1
     5    26    25    1
     6    25     1    1
     7     1     2   ar
     8     2     3   ar
     9     3     4   ar
    10     4     5   ar
    11     5     6   ar
    12     5     7    1
    13     7     8    1
    14     8     9    1
    15     9    11    1
    16    11    12    1
    17    12    13    1
    18    13    14    1
    19    14    18    1
    20    18    19    1
    21    19    20    1
    22    20    21    1
    23    21    22    1
    24    22    23    1
    25    23    24    1
    26    14    15    1
    27    15    16    1
    28    16    17    2
    29     9    10    1
    30     6     1   ar
    31    16    11   am
    32    10     4    1
    33    24    20    1
@<TRIPOS>MOLECULE
*****
 30 33 0 0 0
SMALL
GASTEIGER

@<TRIPOS>ATOM
      1 C         142.0352  140.9934  166.2478 C.ar    1  UNL1       -0.0065
      2 C         141.0431  140.3019  165.3605 C.ar    1  UNL1       -0.0033
      3 C         140.7530  140.8459  163.9930 C.ar    1  UNL1       -0.0048
      4 C         141.4550  142.0814  163.5129 C.ar    1  UNL1       -0.0245
      5 C         142.4471  142.7730  164.4003 C.ar    1  UNL1       -0.0263
      6 C         142.7372  142.2290  165.7677 C.ar    1  UNL1       -0.0075
      7 C         143.1492  144.0086  163.9202 C.3     1  UNL1        0.0277
      8 C         142.8591  144.5526  162.5527 C.3     1  UNL1        0.0248
      9 C         141.8669  143.8610  161.6654 C.3     1  UNL1        0.0801
     10 C         141.1649  142.6254  162.1455 C.3     1  UNL1        0.0458
     11 N         141.5768  144.4050  160.2979 N.am    1  UNL1       -0.2783
     12 C         142.4194  143.9860  159.1298 C.3     1  UNL1        0.1107
     13 C         142.1293  144.5300  157.7623 C.3     1  UNL1        0.0942
     14 N         140.9966  145.4930  157.5630 N.3     1  UNL1       -0.2635
     15 C         140.1540  145.9119  158.7312 C.3     1  UNL1        0.1587
     16 C         140.4441  145.3679  160.0986 C.2     1  UNL1        0.2420
     17 O         139.6016  145.7869  161.2667 O.2     1  UNL1       -0.2734
     18 C         140.7065  146.0370  156.1956 C.3     1  UNL1        0.0734
     19 C         139.3435  146.5761  155.8765 C.3     1  UNL1        0.0281
     20 C         139.1283  148.0569  155.7721 C.3     1  UNL1        0.0491
     21 C         138.4788  148.9286  156.8057 C.3     1  UNL1        0.0117
     22 C         138.4739  150.3365  156.2881 C.3     1  UNL1        0.0125
     23 C         139.1203  150.3349  154.9346 C.3     1  UNL1        0.0576
     24 S         139.5248  148.9261  154.6157 S.3     1  UNL1       -0.1411
     25 C         142.3253  140.4494  167.6152 C.3     1  UNL1        0.0991
     26 N         141.9153  141.2235  168.8329 N.3     1  UNL1       -0.2690
     27 C         143.9258  142.4938  169.8790 C.3     1  UNL1        0.0188
     28 C         142.8852  141.4165  169.9607 C.3     1  UNL1        0.0724
     29 C         140.5353  141.8047  168.9227 C.3     1  UNL1        0.0724
     30 C         140.3541  143.2658  169.2093 C.3     1  UNL1        0.0188
@<TRIPOS>BOND
     1    27    28    1
     2    28    26    1
     3    26    29    1
     4    29    30    1
     5    26    25    1
     6    25     1    1
     7     1     2   ar
     8     2     3   ar
     9     3     4   ar
    10     4     5   ar
    11     5     6   ar
    12     5     7    1
    13     7     8    1
    14     8     9    1
    15     9    11    1
    16    11    12    1
    17    12    13    1
    18    13    14    1
    19    14    18    1
    20    18    19    1
    21    19    20    1
    22    20    21    1
    23    21    22    1
    24    22    23    1
    25    23    24    1
    26    14    15    1
    27    15    16    1
    28    16    17    2
    29     9    10    1
    30     6     1   ar
    31    16    11   am
    32    10     4    1
    33    24    20    1
@<TRIPOS>MOLECULE
*****
 30 33 0 0 0
SMALL
GASTEIGER

@<TRIPOS>ATOM
      1 C         141.8680  142.5178  167.9149 C.ar    1  UNL1       -0.0065
      2 C         143.0009  142.1649  166.9973 C.ar    1  UNL1       -0.0033
      3 C         142.8361  142.3070  165.5131 C.ar    1  UNL1       -0.0048
      4 C         141.5384  142.8019  164.9466 C.ar    1  UNL1       -0.0245
      5 C         140.4055  143.1548  165.8641 C.ar    1  UNL1       -0.0263
      6 C         140.5703  143.0128  167.3483 C.ar    1  UNL1       -0.0075
      7 C         139.1078  143.6497  165.2976 C.3     1  UNL1        0.0277
      8 C         138.9430  143.7917  163.8134 C.3     1  UNL1        0.0248
      9 C         140.0760  143.4388  162.8959 C.3     1  UNL1        0.0801
     10 C         141.3736  142.9439  163.4624 C.3     1  UNL1        0.0458
     11 N         139.9112  143.5808  161.4117 N.am    1  UNL1       -0.2783
     12 C         140.6767  144.6360  160.6697 C.3     1  UNL1        0.1107
     13 C         140.5119  144.7780  159.1855 C.3     1  UNL1        0.0942
     14 N         139.5816  143.8648  158.4434 N.3     1  UNL1       -0.2635
     15 C         138.8161  142.8097  159.1855 C.3     1  UNL1        0.1587
     16 C         138.9809  142.6676  160.6696 C.2     1  UNL1        0.2420
     17 O         138.2155  141.6125  161.4117 O.2     1  UNL1       -0.2734
     18 C         139.4168  144.0068  156.9593 C.3     1  UNL1        0.0734
     19 C         140.4265  144.7792  156.1631 C.3     1  UNL1        0.0281
     20 C         140.0692  146.1231  155.6007 C.3     1  UNL1        0.0491
     21 C         140.6050  146.7191  154.3327 C.3     1  UNL1        0.0117
     22 C         139.9803  148.0713  154.1560 C.3     1  UNL1        0.0125
     23 C         139.0585  148.3111  155.3147 C.3     1  UNL1        0.0576
     24 S         139.1134  147.1071  156.2076 S.3     1  UNL1       -0.1411
     25 C         142.0328  142.3758  169.3990 C.3     1  UNL1        0.0991
     26 N         141.5507  141.1359  170.0919 N.3     1  UNL1       -0.2690
     27 C         139.1217  140.3708  169.5772 C.3     1  UNL1        0.0188
     28 C         140.1124  141.0162  170.5004 C.3     1  UNL1        0.0724
     29 C         142.5069  140.0157  170.3764 C.3     1  UNL1        0.0724
     30 C         142.6438  138.8815  169.4044 C.3     1  UNL1        0.0188
@<TRIPOS>BOND
     1    27    28    1
     2    28    26    1
     3    26    29    1
     4    29    30    1
     5    26    25    1
     6    25     1    1
     7     1     2   ar
     8     2     3   ar
     9     3     4   ar
    10     4     5   ar
    11     5     6   ar
    12     5     7    1
    13     7     8    1
    14     8     9    1
    15     9    11    1
    16    11    12    1
    17    12    13    1
    18    13    14    1
    19    14    18    1
    20    18    19    1
    21    19    20    1
    22    20    21    1
    23    21    22    1
    24    22    23    1
    25    23    24    1
    26    14    15    1
    27    15    16    1
    28    16    17    2
    29     9    10    1
    30     6     1   ar
    31    16    11   am
    32    10     4    1
    33    24    20    1
@<TRIPOS>MOLECULE
*****
 30 33 0 0 0
SMALL
GASTEIGER

@<TRIPOS>ATOM
      1 C         140.0860  140.6348  167.8547 C.ar    1  UNL1       -0.0065
      2 C         141.1535  141.5477  167.3285 C.ar    1  UNL1       -0.0033
      3 C         141.2273  141.8476  165.8607 C.ar    1  UNL1       -0.0048
      4 C         140.2337  141.2345  164.9190 C.ar    1  UNL1       -0.0245
      5 C         139.1662  140.3216  165.4452 C.ar    1  UNL1       -0.0263
      6 C         139.0923  140.0217  166.9130 C.ar    1  UNL1       -0.0075
      7 C         138.1725  139.7085  164.5035 C.3     1  UNL1        0.0277
      8 C         138.2464  140.0083  163.0356 C.3     1  UNL1        0.0248
      9 C         139.3140  140.9213  162.5094 C.3     1  UNL1        0.0801
     10 C         140.3076  141.5344  163.4511 C.3     1  UNL1        0.0458
     11 N         139.3878  141.2212  161.0416 N.am    1  UNL1       -0.2783
     12 C         140.2801  140.4056  160.1534 C.3     1  UNL1        0.1107
     13 C         140.3540  140.7054  158.6856 C.3     1  UNL1        0.0942
     14 N         139.5356  141.8209  158.1059 N.3     1  UNL1       -0.2635
     15 C         138.6434  142.6365  158.9940 C.3     1  UNL1        0.1587
     16 C         138.5695  142.3366  160.4618 C.2     1  UNL1        0.2420
     17 O         137.6773  143.1521  161.3500 O.2     1  UNL1       -0.2734
     18 C         139.6095  142.1208  156.6380 C.3     1  UNL1        0.0734
     19 C         138.5769  143.0019  155.9996 C.3     1  UNL1        0.0281
     20 C         138.8441  144.4680  155.8286 C.3     1  UNL1        0.0491
     21 C         137.9612  145.4477  155.1142 C.3     1  UNL1        0.0117
     22 C         138.6126  146.7970  155.1860 C.3     1  UNL1        0.0125
     23 C         139.8982  146.6511  155.9449 C.3     1  UNL1        0.0576
     24 S         140.0413  145.2117  156.3421 S.3     1  UNL1       -0.1411
     25 C         140.0121  140.3349  169.3226 C.3     1  UNL1        0.0991
     26 N         140.6783  141.2476  170.3090 N.3     1  UNL1       -0.2690
     27 C         142.7901  139.7343  170.3324 C.3     1  UNL1        0.0188
     28 C         141.9924  140.8606  170.9200 C.3     1  UNL1        0.0724
     29 C         140.0304  142.5474  170.6844 C.3     1  UNL1        0.0724
     30 C         140.3405  143.7921  169.9069 C.3     1  UNL1        0.0188
@<TRIPOS>BOND
     1    27    28    1
     2    28    26    1
     3    26    29    1
     4    29    30    1
     5    26    25    1
     6    25     1    1
     7     1     2   ar
     8     2     3   ar
     9     3     4   ar
    10     4     5   ar
    11     5     6   ar
    12     5     7    1
    13     7     8    1
    14     8     9    1
    15     9    11    1
    16    11    12    1
    17    12    13    1
    18    13    14    1
    19    14    18    1
    20    18    19    1
    21    19    20    1
    22    20    21    1
    23    21    22    1
    24    22    23    1
    25    23    24    1
    26    14    15    1
    27    15    16    1
    28    16    17    2
    29     9    10    1
    30     6     1   ar
    31    16    11   am
    32    10     4    1
    33    24    20    1
@<TRIPOS>MOLECULE
*****
 30 33 0 0 0
SMALL
GASTEIGER

@<TRIPOS>ATOM
      1 C         139.1364  140.0666  168.3073 C.ar    1  UNL1       -0.0065
      2 C         138.1031  139.1209  167.7709 C.ar    1  UNL1       -0.0033
      3 C         138.0041  138.8771  166.2941 C.ar    1  UNL1       -0.0048
      4 C         138.9385  139.5790  165.3538 C.ar    1  UNL1       -0.0245
      5 C         139.9718  140.5247  165.8903 C.ar    1  UNL1       -0.0263
      6 C         140.0707  140.7686  167.3670 C.ar    1  UNL1       -0.0075
      7 C         140.9063  141.2267  164.9500 C.3     1  UNL1        0.0277
      8 C         140.8073  140.9829  163.4732 C.3     1  UNL1        0.0248
      9 C         139.7740  140.0371  162.9368 C.3     1  UNL1        0.0801
     10 C         138.8396  139.3352  163.8771 C.3     1  UNL1        0.0458
     11 N         139.6751  139.7932  161.4601 N.am    1  UNL1       -0.2783
     12 C         139.0151  140.8086  160.5748 C.3     1  UNL1        0.1107
     13 C         138.9161  140.5648  159.0981 C.3     1  UNL1        0.0942
     14 N         139.4772  139.3056  158.5066 N.3     1  UNL1       -0.2635
     15 C         140.1372  138.2903  159.3918 C.3     1  UNL1        0.1587
     16 C         140.2361  138.5342  160.8686 C.2     1  UNL1        0.2420
     17 O         140.8960  137.5189  161.7538 O.2     1  UNL1       -0.2734
     18 C         139.3783  139.0618  157.0298 C.3     1  UNL1        0.0734
     19 C         139.8337  137.7539  156.4535 C.3     1  UNL1        0.0281
     20 C         141.2764  137.5540  156.0951 C.3     1  UNL1        0.0491
     21 C         142.1516  136.4267  156.5569 C.3     1  UNL1        0.0117
     22 C         143.5135  136.6223  155.9592 C.3     1  UNL1        0.0125
     23 C         143.4799  137.8705  155.1280 C.3     1  UNL1        0.0576
     24 S         142.0974  138.4463  155.2120 S.3     1  UNL1       -0.1411
     25 C         139.2353  140.3105  169.7841 C.3     1  UNL1        0.0991
     26 N         140.2849  141.2368  170.3226 N.3     1  UNL1       -0.2690
     27 C         142.0795  139.3684  170.1267 C.3     1  UNL1        0.0188
     28 C         141.6576  140.7166  170.6310 C.3     1  UNL1        0.0724
     29 C         139.9619  142.6835  170.5528 C.3     1  UNL1        0.0724
     30 C         140.5216  143.7318  169.6375 C.3     1  UNL1        0.0188
@<TRIPOS>BOND
     1    27    28    1
     2    28    26    1
     3    26    29    1
     4    29    30    1
     5    26    25    1
     6    25     1    1
     7     1     2   ar
     8     2     3   ar
     9     3     4   ar
    10     4     5   ar
    11     5     6   ar
    12     5     7    1
    13     7     8    1
    14     8     9    1
    15     9    11    1
    16    11    12    1
    17    12    13    1
    18    13    14    1
    19    14    18    1
    20    18    19    1
    21    19    20    1
    22    20    21    1
    23    21    22    1
    24    22    23    1
    25    23    24    1
    26    14    15    1
    27    15    16    1
    28    16    17    2
    29     9    10    1
    30     6     1   ar
    31    16    11   am
    32    10     4    1
    33    24    20    1
