@<TRIPOS>MOLECULE
*****
 33 34 0 0 0
SMALL
GASTEIGER

@<TRIPOS>ATOM
      1 C         142.4364  143.6031  162.9890 C.3     1  UNL1        0.2430
      2 C         141.8053  144.7199  162.2116 C.2     1  UNL1        0.2845
      3 O         142.0653  144.8498  160.7400 O.2     1  UNL1       -0.2691
      4 N         140.9141  145.7069  162.9057 N.am    1  UNL1       -0.1940
      5 O         140.2830  146.8237  162.1282 O.3     1  UNL1       -0.2951
      6 H         140.7435  145.6217  163.8716 H       1  UNL1        0.1823
      7 H         140.5522  146.7627  161.1983 H       1  UNL1        0.2414
      8 C         143.4217  142.6889  162.3230 C.3     1  UNL1        0.0533
      9 C         144.8681  142.7295  162.7179 C.3     1  UNL1        0.0057
     10 C         145.4358  141.6554  163.5976 C.3     1  UNL1        0.0172
     11 C         144.5317  140.8699  164.5008 C.3     1  UNL1        0.0688
     12 N         144.0917  139.4911  164.1068 N.3     1  UNL1       -0.2951
     13 H         143.8475  139.5314  163.1173 H       1  UNL1        0.1235
     14 C         142.9377  138.8421  164.8117 C.3     1  UNL1        0.0768
     15 C         141.6667  138.5598  164.0667 C.ar    1  UNL1       -0.0079
     16 C         140.6217  137.6725  164.6756 C.ar    1  UNL1       -0.0007
     17 C         139.3507  137.3902  163.9307 C.ar    1  UNL1        0.0294
     18 C         139.1247  137.9953  162.5769 C.ar    1  UNL1        0.1401
     19 F         137.8537  137.7130  161.8320 F       1  UNL1       -0.2042
     20 C         140.1696  138.8826  161.9680 C.ar    1  UNL1        0.0294
     21 C         141.4406  139.1649  162.7129 C.ar    1  UNL1       -0.0007
     22 C         144.2597  137.7287  166.7514 C.3     1  UNL1        0.0018
     23 C         143.0545  138.4753  166.2615 C.3     1  UNL1        0.0202
     24 O         142.0823  143.4005  164.4324 O.3     1  UNL1       -0.4699
     25 C         140.9667  142.4706  164.8077 C.ar    1  UNL1        0.1386
     26 C         141.0270  141.7093  166.0986 C.ar    1  UNL1        0.0349
     27 C         139.9114  140.7794  166.4738 C.ar    1  UNL1        0.0083
     28 C         139.9718  140.0181  167.7648 C.3     1  UNL1        0.0335
     29 C         138.7355  140.6109  165.5580 C.ar    1  UNL1        0.1323
     30 F         137.6199  139.6810  165.9332 F       1  UNL1       -0.2048
     31 C         138.6751  141.3723  164.2670 C.ar    1  UNL1        0.0083
     32 C         137.4992  141.2038  163.3512 C.3     1  UNL1        0.0335
     33 C         139.7907  142.3021  163.8918 C.ar    1  UNL1        0.0349
@<TRIPOS>BOND
     1    22    23    1
     2    23    14    1
     3    14    12    1
     4    12    11    1
     5    11    10    1
     6    10     9    1
     7     9     8    1
     8     1     8    1
     9     1    24    1
    10    24    25    1
    11    25    26   ar
    12    26    27   ar
    13    27    28    1
    14    27    29   ar
    15    29    30    1
    16    29    31   ar
    17    31    32    1
    18    31    33   ar
    19     1     2    1
    20     2     3    2
    21     2     4   am
    22     4     5    1
    23    14    15    1
    24    15    16   ar
    25    16    17   ar
    26    17    18   ar
    27    18    19    1
    28    18    20   ar
    29    20    21   ar
    30    33    25   ar
    31    21    15   ar
    32    12    13    1
    33     4     6    1
    34     5     7    1
@<TRIPOS>MOLECULE
*****
 33 34 0 0 0
SMALL
GASTEIGER

@<TRIPOS>ATOM
      1 C         141.7880  144.5242  163.5637 C.3     1  UNL1        0.2430
      2 C         142.2495  144.6668  162.1436 C.2     1  UNL1        0.2845
      3 O         143.5564  144.0677  161.7159 O.2     1  UNL1       -0.2691
      4 N         141.4040  145.4086  161.1511 N.am    1  UNL1       -0.1940
      5 O         141.8654  145.5512  159.7310 O.3     1  UNL1       -0.2951
      6 H         140.5462  145.8019  161.4318 H       1  UNL1        0.1823
      7 H         142.7226  145.1099  159.6237 H       1  UNL1        0.2414
      8 C         140.4775  145.1171  163.9895 C.3     1  UNL1        0.0533
      9 C         139.5413  144.3248  164.8531 C.3     1  UNL1        0.0057
     10 C         138.1018  144.1760  164.4585 C.3     1  UNL1        0.0172
     11 C         137.7354  143.9828  163.0168 C.3     1  UNL1        0.0688
     12 N         137.5060  142.6012  162.4799 N.3     1  UNL1       -0.2951
     13 H         136.7645  142.1855  163.0437 H       1  UNL1        0.1235
     14 C         138.6330  141.6118  162.4493 C.3     1  UNL1        0.0768
     15 C         138.6090  140.4192  163.3587 C.ar    1  UNL1       -0.0079
     16 C         138.2317  140.5834  164.8011 C.ar    1  UNL1       -0.0007
     17 C         138.2077  139.3908  165.7106 C.ar    1  UNL1        0.0294
     18 C         138.5609  138.0340  165.1776 C.ar    1  UNL1        0.1401
     19 F         138.5369  136.8413  166.0871 F       1  UNL1       -0.2042
     20 C         138.9382  137.8697  163.7351 C.ar    1  UNL1        0.0294
     21 C         138.9622  139.0623  162.8257 C.ar    1  UNL1       -0.0007
     22 C         139.5727  142.5315  160.2085 C.3     1  UNL1        0.0018
     23 C         139.7841  141.8150  161.5092 C.3     1  UNL1        0.0202
     24 O         142.6369  143.7889  164.5579 O.3     1  UNL1       -0.4699
     25 C         142.4285  142.3203  164.7812 C.ar    1  UNL1        0.1386
     26 C         141.9768  141.8222  166.1221 C.ar    1  UNL1        0.0349
     27 C         141.7684  140.3537  166.3454 C.ar    1  UNL1        0.0083
     28 C         141.3168  139.8556  167.6863 C.3     1  UNL1        0.0335
     29 C         142.0116  139.3832  165.2278 C.ar    1  UNL1        0.1323
     30 F         141.8031  137.9146  165.4511 F       1  UNL1       -0.2048
     31 C         142.4632  139.8812  163.8869 C.ar    1  UNL1        0.0083
     32 C         142.7063  138.9107  162.7693 C.3     1  UNL1        0.0335
     33 C         142.6716  141.3498  163.6636 C.ar    1  UNL1        0.0349
@<TRIPOS>BOND
     1    22    23    1
     2    23    14    1
     3    14    12    1
     4    12    11    1
     5    11    10    1
     6    10     9    1
     7     9     8    1
     8     1     8    1
     9     1    24    1
    10    24    25    1
    11    25    26   ar
    12    26    27   ar
    13    27    28    1
    14    27    29   ar
    15    29    30    1
    16    29    31   ar
    17    31    32    1
    18    31    33   ar
    19     1     2    1
    20     2     3    2
    21     2     4   am
    22     4     5    1
    23    14    15    1
    24    15    16   ar
    25    16    17   ar
    26    17    18   ar
    27    18    19    1
    28    18    20   ar
    29    20    21   ar
    30    33    25   ar
    31    21    15   ar
    32    12    13    1
    33     4     6    1
    34     5     7    1
@<TRIPOS>MOLECULE
*****
 33 34 0 0 0
SMALL
GASTEIGER

@<TRIPOS>ATOM
      1 C         140.5135  145.0883  163.2786 C.3     1  UNL1        0.2430
      2 C         140.5735  145.5121  161.8409 C.2     1  UNL1        0.2845
      3 O         139.4138  146.2358  161.2234 O.2     1  UNL1       -0.2691
      4 N         141.7932  145.2121  161.0208 N.am    1  UNL1       -0.1940
      5 O         141.8531  145.6359  159.5832 O.3     1  UNL1       -0.2951
      6 H         142.5543  144.7371  161.4262 H       1  UNL1        0.1823
      7 H         141.0285  146.0876  159.3446 H       1  UNL1        0.2414
      8 C         139.1953  144.7382  163.9029 C.3     1  UNL1        0.0533
      9 C         138.4568  143.5110  163.4576 C.3     1  UNL1        0.0057
     10 C         137.7278  142.6685  164.4620 C.3     1  UNL1        0.0172
     11 C         138.2088  141.2808  164.7673 C.3     1  UNL1        0.0688
     12 N         138.2375  140.2421  163.6855 N.3     1  UNL1       -0.2951
     13 H         137.3064  139.8270  163.6512 H       1  UNL1        0.1235
     14 C         139.2151  139.1071  163.7615 C.3     1  UNL1        0.0768
     15 C         140.5485  139.2191  163.0834 C.ar    1  UNL1       -0.0079
     16 C         141.5646  138.1272  163.2422 C.ar    1  UNL1       -0.0007
     17 C         142.8979  138.2392  162.5642 C.ar    1  UNL1        0.0294
     18 C         143.2151  139.4430  161.7274 C.ar    1  UNL1        0.1401
     19 F         144.5484  139.5549  161.0494 F       1  UNL1       -0.2042
     20 C         142.1989  140.5349  161.5686 C.ar    1  UNL1        0.0294
     21 C         140.8656  140.4229  162.2466 C.ar    1  UNL1       -0.0007
     22 C         138.4664  137.9437  165.9606 C.3     1  UNL1        0.0018
     23 C         138.8595  137.8600  164.5154 C.3     1  UNL1        0.0202
     24 O         141.7717  145.0145  164.0918 O.3     1  UNL1       -0.4699
     25 C         142.3916  143.6826  164.3952 C.ar    1  UNL1        0.1386
     26 C         143.7385  143.3367  163.8330 C.ar    1  UNL1        0.0349
     27 C         144.3583  142.0049  164.1364 C.ar    1  UNL1        0.0083
     28 C         145.7053  141.6590  163.5741 C.3     1  UNL1        0.0335
     29 C         143.6313  141.0191  165.0021 C.ar    1  UNL1        0.1323
     30 F         144.2512  139.6872  165.3055 F       1  UNL1       -0.2048
     31 C         142.2844  141.3650  165.5644 C.ar    1  UNL1        0.0083
     32 C         141.5574  140.3791  166.4301 C.3     1  UNL1        0.0335
     33 C         141.6646  142.6968  165.2610 C.ar    1  UNL1        0.0349
@<TRIPOS>BOND
     1    22    23    1
     2    23    14    1
     3    14    12    1
     4    12    11    1
     5    11    10    1
     6    10     9    1
     7     9     8    1
     8     1     8    1
     9     1    24    1
    10    24    25    1
    11    25    26   ar
    12    26    27   ar
    13    27    28    1
    14    27    29   ar
    15    29    30    1
    16    29    31   ar
    17    31    32    1
    18    31    33   ar
    19     1     2    1
    20     2     3    2
    21     2     4   am
    22     4     5    1
    23    14    15    1
    24    15    16   ar
    25    16    17   ar
    26    17    18   ar
    27    18    19    1
    28    18    20   ar
    29    20    21   ar
    30    33    25   ar
    31    21    15   ar
    32    12    13    1
    33     4     6    1
    34     5     7    1
@<TRIPOS>MOLECULE
*****
 33 34 0 0 0
SMALL
GASTEIGER

@<TRIPOS>ATOM
      1 C         141.5078  140.3468  168.5847 C.3     1  UNL1        0.2430
      2 C         140.4763  140.2818  169.6718 C.2     1  UNL1        0.2845
      3 O         140.8426  140.6583  171.0767 O.2     1  UNL1       -0.2691
      4 N         139.0784  139.8402  169.3538 N.am    1  UNL1       -0.1940
      5 O         138.0469  139.7752  170.4409 O.3     1  UNL1       -0.2951
      6 H         138.8380  139.5931  168.4316 H       1  UNL1        0.1823
      7 H         138.4455  140.0491  171.2817 H       1  UNL1        0.2414
      8 C         142.4380  139.1910  168.3634 C.3     1  UNL1        0.0533
      9 C         143.2142  139.0873  167.0840 C.3     1  UNL1        0.0057
     10 C         142.5447  138.5849  165.8393 C.3     1  UNL1        0.0172
     11 C         143.0886  138.9586  164.4921 C.3     1  UNL1        0.0688
     12 N         142.5363  140.1479  163.7639 N.3     1  UNL1       -0.2951
     13 H         142.6022  139.9397  162.7675 H       1  UNL1        0.1235
     14 C         143.1499  141.5018  163.9649 C.3     1  UNL1        0.0768
     15 C         142.4180  142.7313  163.5147 C.ar    1  UNL1       -0.0079
     16 C         141.3172  142.6202  162.5019 C.ar    1  UNL1       -0.0007
     17 C         140.5853  143.8497  162.0518 C.ar    1  UNL1        0.0294
     18 C         140.9543  145.1903  162.6144 C.ar    1  UNL1        0.1401
     19 F         140.2224  146.4198  162.1642 F       1  UNL1       -0.2042
     20 C         142.0552  145.3014  163.6272 C.ar    1  UNL1        0.0294
     21 C         142.7871  144.0719  164.0774 C.ar    1  UNL1       -0.0007
     22 C         145.7367  141.6509  163.7743 C.3     1  UNL1        0.0018
     23 C         144.4955  141.6262  164.6161 C.3     1  UNL1        0.0202
     24 O         141.6091  141.5675  167.7189 O.3     1  UNL1       -0.4699
     25 C         140.5381  141.8632  166.7111 C.ar    1  UNL1        0.1386
     26 C         139.9074  140.7442  165.9366 C.ar    1  UNL1        0.0349
     27 C         138.8364  141.0400  164.9289 C.ar    1  UNL1        0.0083
     28 C         138.2057  139.9209  164.1543 C.3     1  UNL1        0.0335
     29 C         138.3962  142.4548  164.6957 C.ar    1  UNL1        0.1323
     30 F         137.3252  142.7506  163.6879 F       1  UNL1       -0.2048
     31 C         139.0268  143.5739  165.4702 C.ar    1  UNL1        0.0083
     32 C         138.5866  144.9887  165.2370 C.3     1  UNL1        0.0335
     33 C         140.0978  143.2781  166.4779 C.ar    1  UNL1        0.0349
@<TRIPOS>BOND
     1    22    23    1
     2    23    14    1
     3    14    12    1
     4    12    11    1
     5    11    10    1
     6    10     9    1
     7     9     8    1
     8     1     8    1
     9     1    24    1
    10    24    25    1
    11    25    26   ar
    12    26    27   ar
    13    27    28    1
    14    27    29   ar
    15    29    30    1
    16    29    31   ar
    17    31    32    1
    18    31    33   ar
    19     1     2    1
    20     2     3    2
    21     2     4   am
    22     4     5    1
    23    14    15    1
    24    15    16   ar
    25    16    17   ar
    26    17    18   ar
    27    18    19    1
    28    18    20   ar
    29    20    21   ar
    30    33    25   ar
    31    21    15   ar
    32    12    13    1
    33     4     6    1
    34     5     7    1
@<TRIPOS>MOLECULE
*****
 33 34 0 0 0
SMALL
GASTEIGER

@<TRIPOS>ATOM
      1 C         142.4638  140.0892  167.5525 C.3     1  UNL1        0.2430
      2 C         142.0915  139.6132  168.9254 C.2     1  UNL1        0.2845
      3 O         143.1282  138.9828  169.8073 O.2     1  UNL1       -0.2691
      4 N         140.6825  139.7675  169.4163 N.am    1  UNL1       -0.1940
      5 O         140.3103  139.2915  170.7892 O.3     1  UNL1       -0.2951
      6 H         140.0021  140.1813  168.8375 H       1  UNL1        0.1823
      7 H         141.0909  138.9127  171.2228 H       1  UNL1        0.2414
      8 C         142.2267  139.2068  166.3628 C.3     1  UNL1        0.0533
      9 C         143.3495  138.9098  165.4137 C.3     1  UNL1        0.0057
     10 C         143.2346  139.3010  163.9702 C.3     1  UNL1        0.0172
     11 C         142.9778  138.2537  162.9274 C.3     1  UNL1        0.0688
     12 N         141.6770  138.2418  162.1807 N.3     1  UNL1       -0.2951
     13 H         141.9024  138.3705  161.1943 H       1  UNL1        0.1235
     14 C         140.6110  139.2426  162.5154 C.3     1  UNL1        0.0768
     15 C         139.7620  139.0537  163.7376 C.ar    1  UNL1       -0.0079
     16 C         139.1575  140.2437  164.4220 C.ar    1  UNL1       -0.0007
     17 C         138.3085  140.0548  165.6442 C.ar    1  UNL1        0.0294
     18 C         138.0641  138.6760  166.1818 C.ar    1  UNL1        0.1401
     19 F         137.2151  138.4871  167.4039 F       1  UNL1       -0.2042
     20 C         138.6687  137.4860  165.4973 C.ar    1  UNL1        0.0294
     21 C         139.5176  137.6748  164.2752 C.ar    1  UNL1       -0.0007
     22 C         141.3346  141.5988  161.6940 C.3     1  UNL1        0.0018
     23 C         140.3939  140.4324  161.6280 C.3     1  UNL1        0.0202
     24 O         143.0731  141.4475  167.3692 O.3     1  UNL1       -0.4699
     25 C         142.5399  142.3728  166.3158 C.ar    1  UNL1        0.1386
     26 C         143.4705  142.9726  165.3038 C.ar    1  UNL1        0.0349
     27 C         142.9373  143.8978  164.2504 C.ar    1  UNL1        0.0083
     28 C         143.8679  144.4978  163.2383 C.3     1  UNL1        0.0335
     29 C         141.4736  144.2232  164.2090 C.ar    1  UNL1        0.1323
     30 F         140.9405  145.1485  163.1555 F       1  UNL1       -0.2048
     31 C         140.5431  143.6233  165.2210 C.ar    1  UNL1        0.0083
     32 C         139.0794  143.9487  165.1796 C.3     1  UNL1        0.0335
     33 C         141.0762  142.6981  166.2744 C.ar    1  UNL1        0.0349
@<TRIPOS>BOND
     1    22    23    1
     2    23    14    1
     3    14    12    1
     4    12    11    1
     5    11    10    1
     6    10     9    1
     7     9     8    1
     8     1     8    1
     9     1    24    1
    10    24    25    1
    11    25    26   ar
    12    26    27   ar
    13    27    28    1
    14    27    29   ar
    15    29    30    1
    16    29    31   ar
    17    31    32    1
    18    31    33   ar
    19     1     2    1
    20     2     3    2
    21     2     4   am
    22     4     5    1
    23    14    15    1
    24    15    16   ar
    25    16    17   ar
    26    17    18   ar
    27    18    19    1
    28    18    20   ar
    29    20    21   ar
    30    33    25   ar
    31    21    15   ar
    32    12    13    1
    33     4     6    1
    34     5     7    1
@<TRIPOS>MOLECULE
*****
 33 34 0 0 0
SMALL
GASTEIGER

@<TRIPOS>ATOM
      1 C         139.5402  142.9524  162.2724 C.3     1  UNL1        0.2430
      2 C         139.8517  144.3064  161.7070 C.2     1  UNL1        0.2845
      3 O         141.1734  144.5560  161.0432 O.2     1  UNL1       -0.2691
      4 N         138.8414  145.4109  161.8055 N.am    1  UNL1       -0.1940
      5 O         139.1529  146.7649  161.2401 O.3     1  UNL1       -0.2951
      6 H         137.9739  145.2470  162.2412 H       1  UNL1        0.1823
      7 H         140.0409  146.7558  160.8499 H       1  UNL1        0.2414
      8 C         138.1140  142.5363  162.4799 C.3     1  UNL1        0.0533
      9 C         137.6597  141.1739  162.0471 C.3     1  UNL1        0.0057
     10 C         138.0970  139.9596  162.8114 C.3     1  UNL1        0.0172
     11 C         138.1785  138.6293  162.1231 C.3     1  UNL1        0.0688
     12 N         139.0638  137.5519  162.6757 N.3     1  UNL1       -0.2951
     13 H         138.4930  136.7096  162.7473 H       1  UNL1        0.1235
     14 C         139.7300  137.7380  164.0067 C.3     1  UNL1        0.0768
     15 C         141.1494  138.2183  164.0745 C.ar    1  UNL1       -0.0079
     16 C         141.8654  138.2588  165.3919 C.ar    1  UNL1       -0.0007
     17 C         143.2848  138.7392  165.4596 C.ar    1  UNL1        0.0294
     18 C         143.9881  139.1790  164.2099 C.ar    1  UNL1        0.1401
     19 F         145.4075  139.6594  164.2776 F       1  UNL1       -0.2042
     20 C         143.2721  139.1386  162.8924 C.ar    1  UNL1        0.0294
     21 C         141.8527  138.6582  162.8247 C.ar    1  UNL1       -0.0007
     22 C         138.3221  138.5589  166.0302 C.3     1  UNL1        0.0018
     23 C         138.9767  137.4436  165.2701 C.3     1  UNL1        0.0202
     24 O         140.6547  142.0145  162.6302 O.3     1  UNL1       -0.4699
     25 C         141.3144  142.1116  163.9739 C.ar    1  UNL1        0.1386
     26 C         140.5825  141.6609  165.2031 C.ar    1  UNL1        0.0349
     27 C         141.2422  141.7580  166.5467 C.ar    1  UNL1        0.0083
     28 C         140.5103  141.3072  167.7760 C.3     1  UNL1        0.0335
     29 C         142.6339  142.3059  166.6611 C.ar    1  UNL1        0.1323
     30 F         143.2936  142.4030  168.0047 F       1  UNL1       -0.2048
     31 C         143.3658  142.7567  165.4318 C.ar    1  UNL1        0.0083
     32 C         144.7575  143.3046  165.5462 C.3     1  UNL1        0.0335
     33 C         142.7061  142.6595  164.0883 C.ar    1  UNL1        0.0349
@<TRIPOS>BOND
     1    22    23    1
     2    23    14    1
     3    14    12    1
     4    12    11    1
     5    11    10    1
     6    10     9    1
     7     9     8    1
     8     1     8    1
     9     1    24    1
    10    24    25    1
    11    25    26   ar
    12    26    27   ar
    13    27    28    1
    14    27    29   ar
    15    29    30    1
    16    29    31   ar
    17    31    32    1
    18    31    33   ar
    19     1     2    1
    20     2     3    2
    21     2     4   am
    22     4     5    1
    23    14    15    1
    24    15    16   ar
    25    16    17   ar
    26    17    18   ar
    27    18    19    1
    28    18    20   ar
    29    20    21   ar
    30    33    25   ar
    31    21    15   ar
    32    12    13    1
    33     4     6    1
    34     5     7    1
@<TRIPOS>MOLECULE
*****
 33 34 0 0 0
SMALL
GASTEIGER

@<TRIPOS>ATOM
      1 C         138.5294  139.3429  163.7476 C.3     1  UNL1        0.2430
      2 C         137.7496  139.8826  162.5853 C.2     1  UNL1        0.2845
      3 O         137.3218  141.3202  162.5719 O.2     1  UNL1       -0.2691
      4 N         137.3977  138.9845  161.4365 N.am    1  UNL1       -0.1940
      5 O         136.6179  139.5241  160.2743 O.3     1  UNL1       -0.2951
      6 H         137.6785  138.0409  161.4453 H       1  UNL1        0.1823
      7 H         136.4231  140.4626  160.4234 H       1  UNL1        0.2414
      8 C         138.2848  139.8771  165.1277 C.3     1  UNL1        0.0533
      9 C         138.3236  138.9520  166.3078 C.3     1  UNL1        0.0057
     10 C         138.4440  139.5104  167.6948 C.3     1  UNL1        0.0172
     11 C         139.7855  139.9255  168.2223 C.3     1  UNL1        0.0688
     12 N         139.9031  141.1310  169.1071 N.3     1  UNL1       -0.2951
     13 H         138.9627  141.5115  169.2129 H       1  UNL1        0.1235
     14 C         140.7894  142.2725  168.7054 C.3     1  UNL1        0.0768
     15 C         141.2110  142.4270  167.2742 C.ar    1  UNL1       -0.0079
     16 C         142.6194  142.1080  166.8685 C.ar    1  UNL1       -0.0007
     17 C         143.0409  142.2625  165.4372 C.ar    1  UNL1        0.0294
     18 C         142.0541  142.7361  164.4117 C.ar    1  UNL1        0.1401
     19 F         142.4756  142.8907  162.9805 F       1  UNL1       -0.2042
     20 C         140.6456  143.0552  164.8174 C.ar    1  UNL1        0.0294
     21 C         140.2241  142.9007  166.2486 C.ar    1  UNL1       -0.0007
     22 C         142.5871  143.0791  170.3989 C.3     1  UNL1        0.0018
     23 C         141.2542  143.2595  169.7349 C.3     1  UNL1        0.0202
     24 O         139.5538  138.2692  163.5296 O.3     1  UNL1       -0.4699
     25 C         141.0087  138.5663  163.7421 C.ar    1  UNL1        0.1386
     26 C         141.6661  138.2051  165.0411 C.ar    1  UNL1        0.0349
     27 C         143.1209  138.5022  165.2535 C.ar    1  UNL1        0.0083
     28 C         143.7783  138.1410  166.5526 C.3     1  UNL1        0.0335
     29 C         143.9184  139.1606  164.1670 C.ar    1  UNL1        0.1323
     30 F         145.3732  139.4578  164.3795 F       1  UNL1       -0.2048
     31 C         143.2610  139.5219  162.8680 C.ar    1  UNL1        0.0083
     32 C         144.0585  140.1803  161.7815 C.3     1  UNL1        0.0335
     33 C         141.8062  139.2247  162.6556 C.ar    1  UNL1        0.0349
@<TRIPOS>BOND
     1    22    23    1
     2    23    14    1
     3    14    12    1
     4    12    11    1
     5    11    10    1
     6    10     9    1
     7     9     8    1
     8     1     8    1
     9     1    24    1
    10    24    25    1
    11    25    26   ar
    12    26    27   ar
    13    27    28    1
    14    27    29   ar
    15    29    30    1
    16    29    31   ar
    17    31    32    1
    18    31    33   ar
    19     1     2    1
    20     2     3    2
    21     2     4   am
    22     4     5    1
    23    14    15    1
    24    15    16   ar
    25    16    17   ar
    26    17    18   ar
    27    18    19    1
    28    18    20   ar
    29    20    21   ar
    30    33    25   ar
    31    21    15   ar
    32    12    13    1
    33     4     6    1
    34     5     7    1
@<TRIPOS>MOLECULE
*****
 33 34 0 0 0
SMALL
GASTEIGER

@<TRIPOS>ATOM
      1 C         141.8630  141.8607  168.7725 C.3     1  UNL1        0.2430
      2 C         142.1179  142.9429  169.7794 C.2     1  UNL1        0.2845
      3 O         141.0129  143.8789  170.1704 O.2     1  UNL1       -0.2691
      4 N         143.4778  143.0891  170.3954 N.am    1  UNL1       -0.1940
      5 O         143.7327  144.1713  171.4023 O.3     1  UNL1       -0.2951
      6 H         144.2031  142.4747  170.1387 H       1  UNL1        0.1823
      7 H         142.9200  144.6826  171.5401 H       1  UNL1        0.2414
      8 C         142.7419  140.6456  168.7387 C.3     1  UNL1        0.0533
      9 C         142.3725  139.4766  167.8745 C.3     1  UNL1        0.0057
     10 C         142.6036  139.5360  166.3937 C.3     1  UNL1        0.0172
     11 C         142.1853  138.3886  165.5226 C.3     1  UNL1        0.0688
     12 N         140.7287  138.0999  165.3110 N.3     1  UNL1       -0.2951
     13 H         140.6430  137.6813  164.3848 H       1  UNL1        0.1235
     14 C         139.7260  139.2135  165.3773 C.3     1  UNL1        0.0768
     15 C         139.5025  140.0936  164.1833 C.ar    1  UNL1       -0.0079
     16 C         138.1267  140.6067  163.8768 C.ar    1  UNL1       -0.0007
     17 C         137.9032  141.4867  162.6828 C.ar    1  UNL1        0.0294
     18 C         139.0555  141.8537  161.7954 C.ar    1  UNL1        0.1401
     19 F         138.8320  142.7337  160.6014 F       1  UNL1       -0.2042
     20 C         140.4313  141.3406  162.1019 C.ar    1  UNL1        0.0294
     21 C         140.6549  140.4606  163.2958 C.ar    1  UNL1       -0.0007
     22 C         137.7768  138.5692  166.9697 C.3     1  UNL1        0.0018
     23 C         138.9468  139.4472  166.6376 C.3     1  UNL1        0.0202
     24 O         140.7293  141.9936  167.7994 O.3     1  UNL1       -0.4699
     25 C         140.9304  142.7331  166.5099 C.ar    1  UNL1        0.1386
     26 C         139.7722  143.4235  165.8528 C.ar    1  UNL1        0.0349
     27 C         139.9734  144.1629  164.5633 C.ar    1  UNL1        0.0083
     28 C         138.8152  144.8534  163.9061 C.3     1  UNL1        0.0335
     29 C         141.3327  144.2120  163.9310 C.ar    1  UNL1        0.1323
     30 F         141.5338  144.9515  162.6415 F       1  UNL1       -0.2048
     31 C         142.4909  143.5215  164.5882 C.ar    1  UNL1        0.0083
     32 C         143.8502  143.5706  163.9559 C.3     1  UNL1        0.0335
     33 C         142.2897  142.7821  165.8776 C.ar    1  UNL1        0.0349
@<TRIPOS>BOND
     1    22    23    1
     2    23    14    1
     3    14    12    1
     4    12    11    1
     5    11    10    1
     6    10     9    1
     7     9     8    1
     8     1     8    1
     9     1    24    1
    10    24    25    1
    11    25    26   ar
    12    26    27   ar
    13    27    28    1
    14    27    29   ar
    15    29    30    1
    16    29    31   ar
    17    31    32    1
    18    31    33   ar
    19     1     2    1
    20     2     3    2
    21     2     4   am
    22     4     5    1
    23    14    15    1
    24    15    16   ar
    25    16    17   ar
    26    17    18   ar
    27    18    19    1
    28    18    20   ar
    29    20    21   ar
    30    33    25   ar
    31    21    15   ar
    32    12    13    1
    33     4     6    1
    34     5     7    1
@<TRIPOS>MOLECULE
*****
 33 34 0 0 0
SMALL
GASTEIGER

@<TRIPOS>ATOM
      1 C         140.9773  142.1097  168.9432 C.3     1  UNL1        0.2430
      2 C         139.8915  142.2740  169.9650 C.2     1  UNL1        0.2845
      3 O         138.9585  141.1365  170.2575 O.2     1  UNL1       -0.2691
      4 N         139.7386  143.5760  170.6943 N.am    1  UNL1       -0.1940
      5 O         138.6528  143.7403  171.7160 O.3     1  UNL1       -0.2951
      6 H         140.3510  144.3226  170.5023 H       1  UNL1        0.1823
      7 H         138.1442  142.9170  171.7825 H       1  UNL1        0.2414
      8 C         142.1011  141.1476  169.1912 C.3     1  UNL1        0.0533
      9 C         142.9017  140.6166  168.0393 C.3     1  UNL1        0.0057
     10 C         142.8525  139.1559  167.7019 C.3     1  UNL1        0.0172
     11 C         142.5681  138.7202  166.2950 C.3     1  UNL1        0.0688
     12 N         143.4495  139.1841  165.1735 N.3     1  UNL1       -0.2951
     13 H         144.0202  139.9446  165.5428 H       1  UNL1        0.1235
     14 C         142.8395  139.6811  163.8966 C.3     1  UNL1        0.0768
     15 C         142.5431  141.1416  163.7256 C.ar    1  UNL1       -0.0079
     16 C         143.1984  142.1498  164.6222 C.ar    1  UNL1       -0.0007
     17 C         142.9021  143.6103  164.4513 C.ar    1  UNL1        0.0294
     18 C         141.9505  144.0625  163.3837 C.ar    1  UNL1        0.1401
     19 F         141.6541  145.5230  163.2127 F       1  UNL1       -0.2042
     20 C         141.2951  143.0543  162.4870 C.ar    1  UNL1        0.0294
     21 C         141.5914  141.5938  162.6579 C.ar    1  UNL1       -0.0007
     22 C         141.3885  137.7508  162.9381 C.3     1  UNL1        0.0018
     23 C         142.5257  138.7177  162.7904 C.3     1  UNL1        0.0202
     24 O         140.9393  142.9075  167.6736 O.3     1  UNL1       -0.4699
     25 C         140.0172  142.5038  166.5614 C.ar    1  UNL1        0.1386
     26 C         139.7453  141.0516  166.3024 C.ar    1  UNL1        0.0349
     27 C         138.8233  140.6479  165.1903 C.ar    1  UNL1        0.0083
     28 C         138.5513  139.1956  164.9313 C.3     1  UNL1        0.0335
     29 C         138.1731  141.6965  164.3372 C.ar    1  UNL1        0.1323
     30 F         137.2510  141.2927  163.2250 F       1  UNL1       -0.2048
     31 C         138.4450  143.1487  164.5962 C.ar    1  UNL1        0.0083
     32 C         137.7949  144.1972  163.7430 C.3     1  UNL1        0.0335
     33 C         139.3671  143.5523  165.7083 C.ar    1  UNL1        0.0349
@<TRIPOS>BOND
     1    22    23    1
     2    23    14    1
     3    14    12    1
     4    12    11    1
     5    11    10    1
     6    10     9    1
     7     9     8    1
     8     1     8    1
     9     1    24    1
    10    24    25    1
    11    25    26   ar
    12    26    27   ar
    13    27    28    1
    14    27    29   ar
    15    29    30    1
    16    29    31   ar
    17    31    32    1
    18    31    33   ar
    19     1     2    1
    20     2     3    2
    21     2     4   am
    22     4     5    1
    23    14    15    1
    24    15    16   ar
    25    16    17   ar
    26    17    18   ar
    27    18    19    1
    28    18    20   ar
    29    20    21   ar
    30    33    25   ar
    31    21    15   ar
    32    12    13    1
    33     4     6    1
    34     5     7    1
