@<TRIPOS>MOLECULE
*****
 41 44 0 0 0
SMALL
GASTEIGER

@<TRIPOS>ATOM
      1 C         142.8839  138.1292  160.0387 C.3     1  UNL1        0.0889
      2 C         142.3604  137.7193  158.6942 C.3     1  UNL1        0.0383
      3 C         142.9066  138.6732  157.6736 C.3     1  UNL1        0.0739
      4 N         143.7678  139.6728  158.3874 N.3     1  UNL1       -0.2712
      5 C         143.7537  139.3365  159.8491 C.3     1  UNL1        0.0919
      6 O         140.4126  138.8495  161.5794 O.2     1  UNL1       -0.2733
      7 C         141.3538  137.8111  162.1142 C.2     1  UNL1        0.2425
      8 N         142.5894  137.4510  161.3439 N.am    1  UNL1       -0.3032
      9 H         143.2071  136.7694  161.6949 H       1  UNL1        0.1495
     10 C         141.0593  137.1328  163.4192 C.3     1  UNL1        0.1759
     11 N         140.7352  137.9515  164.6336 N.am    1  UNL1       -0.2931
     12 C         141.8383  138.5935  165.4217 C.2     1  UNL1        0.2462
     13 O         143.2655  138.4168  164.9953 O.2     1  UNL1       -0.2701
     14 H         139.7984  138.0675  164.9135 H       1  UNL1        0.1502
     15 C         141.5141  139.4122  166.6361 C.ar    1  UNL1        0.0533
     16 C         140.1010  139.4898  167.1330 C.ar    1  UNL1        0.0045
     17 C         139.7770  140.3085  168.3474 C.ar    1  UNL1        0.0001
     18 C         140.8660  141.0496  169.0648 C.ar    1  UNL1        0.0039
     19 C         142.2792  140.9720  168.5679 C.ar    1  UNL1        0.0716
     20 C         142.6032  140.1533  167.3535 C.ar    1  UNL1        0.0084
     21 C         143.3683  141.7130  169.2853 C.3     1  UNL1        0.4186
     22 F         144.4574  142.4541  170.0027 F       1  UNL1       -0.1659
     23 F         143.3219  142.7905  168.2427 F       1  UNL1       -0.1659
     24 F         143.4146  140.6356  170.3279 F       1  UNL1       -0.1659
     25 C         144.5122  140.8090  157.7511 C.3     1  UNL1        0.0721
     26 C         144.1983  142.2230  158.1408 C.3     1  UNL1        0.0174
     27 C         143.8895  142.5560  159.5704 C.3     1  UNL1        0.0048
     28 C         142.4647  142.7067  160.0145 C.3     1  UNL1        0.0216
     29 C         142.1559  143.0397  161.4442 C.3     1  UNL1        0.0937
     30 N         143.2721  143.2219  162.4296 N.am    1  UNL1       -0.2760
     31 C         142.9633  143.5549  163.8593 C.2     1  UNL1        0.2512
     32 O         144.0793  143.7372  164.8448 O.2     1  UNL1       -0.2698
     33 C         144.6969  143.0712  161.9856 C.3     1  UNL1        0.0937
     34 C         145.0056  142.7382  160.5560 C.3     1  UNL1        0.0216
     35 C         141.5385  143.7057  164.3034 C.ar    1  UNL1        0.0810
     36 C         140.9115  142.6618  165.1792 C.ar    1  UNL1        0.0068
     37 C         139.4867  142.8125  165.6233 C.ar    1  UNL1        0.0003
     38 C         138.6889  144.0072  165.1915 C.ar    1  UNL1        0.0023
     39 C         139.3160  145.0511  164.3157 C.ar    1  UNL1        0.0298
     40 C         140.7408  144.9004  163.8716 C.ar    1  UNL1        0.1445
     41 F         141.3678  145.9442  162.9958 F       1  UNL1       -0.2040
@<TRIPOS>BOND
     1     6     7    2
     2     7    10    1
     3    10    11    1
     4    11    12   am
     5    12    13    2
     6    12    15    1
     7    15    16   ar
     8    16    17   ar
     9    17    18   ar
    10    18    19   ar
    11    19    21    1
    12    21    22    1
    13    21    23    1
    14    21    24    1
    15    19    20   ar
    16     7     8   am
    17     1     8    1
    18     1     2    1
    19     2     3    1
    20     3     4    1
    21     4    25    1
    22    25    26    1
    23    26    27    1
    24    27    28    1
    25    28    29    1
    26    29    30    1
    27    30    31   am
    28    31    32    2
    29    31    35    1
    30    35    36   ar
    31    36    37   ar
    32    37    38   ar
    33    38    39   ar
    34    39    40   ar
    35    40    41    1
    36    30    33    1
    37    33    34    1
    38     4     5    1
    39    20    15   ar
    40     5     1    1
    41    34    27    1
    42    40    35   ar
    43    11    14    1
    44     8     9    1
@<TRIPOS>MOLECULE
*****
 41 44 0 0 0
SMALL
GASTEIGER

@<TRIPOS>ATOM
      1 C         141.6125  143.8963  159.8338 C.3     1  UNL1        0.0889
      2 C         142.0400  144.1395  158.4168 C.3     1  UNL1        0.0383
      3 C         140.9070  143.7450  157.5165 C.3     1  UNL1        0.0739
      4 N         139.7791  143.2579  158.3772 N.3     1  UNL1       -0.2712
      5 C         140.2152  143.3514  159.8093 C.3     1  UNL1        0.0919
      6 O         143.9493  142.1248  160.4674 O.2     1  UNL1       -0.2733
      7 C         143.6058  143.2671  161.3769 C.2     1  UNL1        0.2425
      8 N         142.4375  144.1528  161.0601 N.am    1  UNL1       -0.3032
      9 H         142.2120  144.9026  161.6570 H       1  UNL1        0.1495
     10 C         144.4307  143.5237  162.6031 C.3     1  UNL1        0.1759
     11 N         143.9503  143.0498  163.9428 N.am    1  UNL1       -0.2931
     12 C         144.0009  141.5901  164.2844 C.2     1  UNL1        0.2462
     13 O         144.5318  140.6042  163.2864 O.2     1  UNL1       -0.2701
     14 H         143.6019  143.6969  164.5979 H       1  UNL1        0.1502
     15 C         143.5206  141.1163  165.6242 C.ar    1  UNL1        0.0533
     16 C         143.3237  139.6506  165.8749 C.ar    1  UNL1        0.0045
     17 C         142.8434  139.1768  167.2146 C.ar    1  UNL1        0.0001
     18 C         142.5599  140.1687  168.3035 C.ar    1  UNL1        0.0039
     19 C         142.7568  141.6344  168.0528 C.ar    1  UNL1        0.0716
     20 C         143.2371  142.1082  166.7131 C.ar    1  UNL1        0.0084
     21 C         142.4734  142.6263  169.1417 C.3     1  UNL1        0.4186
     22 F         142.1899  143.6182  170.2306 F       1  UNL1       -0.1659
     23 F         143.8143  142.3412  169.7505 F       1  UNL1       -0.1659
     24 F         141.1324  142.9114  168.5329 F       1  UNL1       -0.1659
     25 C         138.4488  142.7640  157.8910 C.3     1  UNL1        0.0721
     26 C         138.0808  141.3188  158.0522 C.3     1  UNL1        0.0174
     27 C         138.5655  140.5501  159.2455 C.3     1  UNL1        0.0048
     28 C         138.0773  140.9089  160.6177 C.3     1  UNL1        0.0216
     29 C         138.5620  140.1401  161.8111 C.3     1  UNL1        0.0937
     30 N         139.5349  139.0126  161.6321 N.am    1  UNL1       -0.2760
     31 C         140.0197  138.2438  162.8255 C.2     1  UNL1        0.2512
     32 O         140.9926  137.1162  162.6467 O.2     1  UNL1       -0.2698
     33 C         140.0232  138.6537  160.2599 C.3     1  UNL1        0.0937
     34 C         139.5385  139.4225  159.0666 C.3     1  UNL1        0.0216
     35 C         139.5314  138.6026  164.1977 C.ar    1  UNL1        0.0810
     36 C         138.6788  137.6374  164.9665 C.ar    1  UNL1        0.0068
     37 C         138.1905  137.9962  166.3387 C.ar    1  UNL1        0.0003
     38 C         138.5550  139.3203  166.9420 C.ar    1  UNL1        0.0023
     39 C         139.4077  140.2855  166.1731 C.ar    1  UNL1        0.0298
     40 C         139.8960  139.9267  164.8009 C.ar    1  UNL1        0.1445
     41 F         140.7486  140.8919  164.0321 F       1  UNL1       -0.2040
@<TRIPOS>BOND
     1     6     7    2
     2     7    10    1
     3    10    11    1
     4    11    12   am
     5    12    13    2
     6    12    15    1
     7    15    16   ar
     8    16    17   ar
     9    17    18   ar
    10    18    19   ar
    11    19    21    1
    12    21    22    1
    13    21    23    1
    14    21    24    1
    15    19    20   ar
    16     7     8   am
    17     1     8    1
    18     1     2    1
    19     2     3    1
    20     3     4    1
    21     4    25    1
    22    25    26    1
    23    26    27    1
    24    27    28    1
    25    28    29    1
    26    29    30    1
    27    30    31   am
    28    31    32    2
    29    31    35    1
    30    35    36   ar
    31    36    37   ar
    32    37    38   ar
    33    38    39   ar
    34    39    40   ar
    35    40    41    1
    36    30    33    1
    37    33    34    1
    38     4     5    1
    39    20    15   ar
    40     5     1    1
    41    34    27    1
    42    40    35   ar
    43    11    14    1
    44     8     9    1
@<TRIPOS>MOLECULE
*****
 41 44 0 0 0
SMALL
GASTEIGER

@<TRIPOS>ATOM
      1 C         141.8627  145.0690  158.8304 C.3     1  UNL1        0.0889
      2 C         141.6414  145.8266  157.5549 C.3     1  UNL1        0.0383
      3 C         142.1633  144.9917  156.4233 C.3     1  UNL1        0.0739
      4 N         142.7072  143.7180  156.9995 N.3     1  UNL1       -0.2712
      5 C         142.5214  143.7657  158.4872 C.3     1  UNL1        0.0919
      6 O         139.3116  144.1226  160.0940 O.2     1  UNL1       -0.2733
      7 C         140.2151  145.0598  160.8393 C.2     1  UNL1        0.2425
      8 N         141.4906  145.5330  160.2075 N.am    1  UNL1       -0.3032
      9 H         142.0835  146.1482  160.6966 H       1  UNL1        0.1495
     10 C         139.8430  145.5239  162.2163 C.3     1  UNL1        0.1759
     11 N         140.1089  144.6439  163.4017 N.am    1  UNL1       -0.2931
     12 C         139.1585  143.5339  163.7399 C.2     1  UNL1        0.2462
     13 O         137.9422  143.3037  162.8927 O.2     1  UNL1       -0.2701
     14 H         140.9072  144.7950  163.9577 H       1  UNL1        0.1502
     15 C         139.4243  142.6539  164.9253 C.ar    1  UNL1        0.0533
     16 C         140.3897  143.0949  165.9852 C.ar    1  UNL1        0.0045
     17 C         140.6555  142.2149  167.1705 C.ar    1  UNL1        0.0001
     18 C         139.9559  140.8940  167.2959 C.ar    1  UNL1        0.0039
     19 C         138.9905  140.4530  166.2359 C.ar    1  UNL1        0.0716
     20 C         138.7247  141.3330  165.0506 C.ar    1  UNL1        0.0084
     21 C         138.2909  139.1321  166.3613 C.3     1  UNL1        0.4186
     22 F         137.5914  137.8111  166.4867 F       1  UNL1       -0.1659
     23 F         138.5168  139.1532  167.8441 F       1  UNL1       -0.1659
     24 F         138.0651  139.1110  164.8786 F       1  UNL1       -0.1659
     25 C         143.3279  142.5939  156.2242 C.3     1  UNL1        0.0721
     26 C         142.9619  141.1737  156.5391 C.3     1  UNL1        0.0174
     27 C         142.2439  140.8498  157.8156 C.3     1  UNL1        0.0048
     28 C         143.0203  140.4154  159.0233 C.3     1  UNL1        0.0216
     29 C         142.3023  140.0915  160.3000 C.3     1  UNL1        0.0937
     30 N         140.8080  140.2018  160.3687 N.am    1  UNL1       -0.2760
     31 C         140.0900  139.8779  161.6453 C.2     1  UNL1        0.2512
     32 O         138.5956  139.9882  161.7141 O.2     1  UNL1       -0.2698
     33 C         140.0316  140.6362  159.1610 C.3     1  UNL1        0.0937
     34 C         140.7495  140.9601  157.8845 C.3     1  UNL1        0.0216
     35 C         140.8664  139.4435  162.8530 C.ar    1  UNL1        0.0810
     36 C         141.8494  140.3806  163.4895 C.ar    1  UNL1        0.0068
     37 C         142.6258  139.9463  164.6972 C.ar    1  UNL1        0.0003
     38 C         142.4191  138.5748  165.2684 C.ar    1  UNL1        0.0023
     39 C         141.4360  137.6376  164.6318 C.ar    1  UNL1        0.0298
     40 C         140.6596  138.0720  163.4241 C.ar    1  UNL1        0.1445
     41 F         139.6766  137.1348  162.7875 F       1  UNL1       -0.2040
@<TRIPOS>BOND
     1     6     7    2
     2     7    10    1
     3    10    11    1
     4    11    12   am
     5    12    13    2
     6    12    15    1
     7    15    16   ar
     8    16    17   ar
     9    17    18   ar
    10    18    19   ar
    11    19    21    1
    12    21    22    1
    13    21    23    1
    14    21    24    1
    15    19    20   ar
    16     7     8   am
    17     1     8    1
    18     1     2    1
    19     2     3    1
    20     3     4    1
    21     4    25    1
    22    25    26    1
    23    26    27    1
    24    27    28    1
    25    28    29    1
    26    29    30    1
    27    30    31   am
    28    31    32    2
    29    31    35    1
    30    35    36   ar
    31    36    37   ar
    32    37    38   ar
    33    38    39   ar
    34    39    40   ar
    35    40    41    1
    36    30    33    1
    37    33    34    1
    38     4     5    1
    39    20    15   ar
    40     5     1    1
    41    34    27    1
    42    40    35   ar
    43    11    14    1
    44     8     9    1
@<TRIPOS>MOLECULE
*****
 41 44 0 0 0
SMALL
GASTEIGER

@<TRIPOS>ATOM
      1 C         142.9261  138.1167  159.7331 C.3     1  UNL1        0.0889
      2 C         142.5177  137.7364  158.3408 C.3     1  UNL1        0.0383
      3 C         143.0612  138.7702  157.3996 C.3     1  UNL1        0.0739
      4 N         143.8055  139.7895  158.2102 N.3     1  UNL1       -0.2712
      5 C         143.7220  139.3856  159.6524 C.3     1  UNL1        0.0919
      6 O         140.9867  139.2666  161.7122 O.2     1  UNL1       -0.2733
      7 C         141.6268  137.9358  161.9757 C.2     1  UNL1        0.2425
      8 N         142.5964  137.3609  160.9861 N.am    1  UNL1       -0.3032
      9 H         143.0165  136.4875  161.1591 H       1  UNL1        0.1495
     10 C         141.2972  137.1800  163.2287 C.3     1  UNL1        0.1759
     11 N         141.2937  137.8866  164.5519 N.am    1  UNL1       -0.2931
     12 C         140.0531  138.5831  165.0269 C.2     1  UNL1        0.2462
     13 O         138.8159  138.5730  164.1788 O.2     1  UNL1       -0.2701
     14 H         142.1057  137.8932  165.1085 H       1  UNL1        0.1502
     15 C         140.0496  139.2897  166.3501 C.ar    1  UNL1        0.0533
     16 C         138.8232  139.2595  167.2132 C.ar    1  UNL1        0.0045
     17 C         138.8198  139.9661  168.5363 C.ar    1  UNL1        0.0001
     18 C         140.0427  140.7028  168.9963 C.ar    1  UNL1        0.0039
     19 C         141.2691  140.7330  168.1332 C.ar    1  UNL1        0.0716
     20 C         141.2725  140.0264  166.8101 C.ar    1  UNL1        0.0084
     21 C         142.4921  141.4697  168.5932 C.3     1  UNL1        0.4186
     22 F         143.7150  142.2064  169.0533 F       1  UNL1       -0.1659
     23 F         143.2040  140.1643  168.7912 F       1  UNL1       -0.1659
     24 F         141.7801  142.7751  168.3953 F       1  UNL1       -0.1659
     25 C         144.5097  141.0001  157.6730 C.3     1  UNL1        0.0721
     26 C         144.0953  142.3698  158.1224 C.3     1  UNL1        0.0174
     27 C         142.8317  142.5503  158.9103 C.3     1  UNL1        0.0048
     28 C         142.8989  142.8127  160.3857 C.3     1  UNL1        0.0216
     29 C         141.6353  142.9932  161.1736 C.3     1  UNL1        0.0937
     30 N         140.3046  142.9112  160.4862 N.am    1  UNL1       -0.2760
     31 C         139.0410  143.0917  161.2742 C.2     1  UNL1        0.2512
     32 O         137.7103  143.0097  160.5867 O.2     1  UNL1       -0.2698
     33 C         140.2375  142.6488  159.0108 C.3     1  UNL1        0.0937
     34 C         141.5010  142.4683  158.2229 C.3     1  UNL1        0.0216
     35 C         139.1082  143.3542  162.7495 C.ar    1  UNL1        0.0810
     36 C         139.1113  142.2071  163.7159 C.ar    1  UNL1        0.0068
     37 C         139.1785  142.4695  165.1912 C.ar    1  UNL1        0.0003
     38 C         139.2425  143.8791  165.7001 C.ar    1  UNL1        0.0023
     39 C         139.2394  145.0263  164.7336 C.ar    1  UNL1        0.0298
     40 C         139.1722  144.7638  163.2582 C.ar    1  UNL1        0.1445
     41 F         139.1691  145.9109  162.2918 F       1  UNL1       -0.2040
@<TRIPOS>BOND
     1     6     7    2
     2     7    10    1
     3    10    11    1
     4    11    12   am
     5    12    13    2
     6    12    15    1
     7    15    16   ar
     8    16    17   ar
     9    17    18   ar
    10    18    19   ar
    11    19    21    1
    12    21    22    1
    13    21    23    1
    14    21    24    1
    15    19    20   ar
    16     7     8   am
    17     1     8    1
    18     1     2    1
    19     2     3    1
    20     3     4    1
    21     4    25    1
    22    25    26    1
    23    26    27    1
    24    27    28    1
    25    28    29    1
    26    29    30    1
    27    30    31   am
    28    31    32    2
    29    31    35    1
    30    35    36   ar
    31    36    37   ar
    32    37    38   ar
    33    38    39   ar
    34    39    40   ar
    35    40    41    1
    36    30    33    1
    37    33    34    1
    38     4     5    1
    39    20    15   ar
    40     5     1    1
    41    34    27    1
    42    40    35   ar
    43    11    14    1
    44     8     9    1
@<TRIPOS>MOLECULE
*****
 41 44 0 0 0
SMALL
GASTEIGER

@<TRIPOS>ATOM
      1 C         139.6897  138.7673  159.0263 C.3     1  UNL1        0.0889
      2 C         138.7963  139.9665  158.9084 C.3     1  UNL1        0.0383
      3 C         138.0861  140.1459  160.2174 C.3     1  UNL1        0.0739
      4 N         138.5405  139.0575  161.1443 N.3     1  UNL1       -0.2712
      5 C         139.5316  138.2056  160.4081 C.3     1  UNL1        0.0919
      6 O         142.6287  139.3671  159.0760 O.2     1  UNL1       -0.2733
      7 C         142.0536  138.5249  157.9760 C.2     1  UNL1        0.2425
      8 N         140.5841  138.2250  157.9511 N.am    1  UNL1       -0.3032
      9 H         140.2067  137.6723  157.2291 H       1  UNL1        0.1495
     10 C         142.9480  137.9827  156.9008 C.3     1  UNL1        0.1759
     11 N         143.2852  136.5213  156.8720 N.am    1  UNL1       -0.2931
     12 C         142.3082  135.5373  156.3000 C.2     1  UNL1        0.2462
     13 O         140.9940  136.0145  155.7569 O.2     1  UNL1       -0.2701
     14 H         144.1478  136.2080  157.2285 H       1  UNL1        0.1502
     15 C         142.6455  134.0759  156.2712 C.ar    1  UNL1        0.0533
     16 C         143.9182  133.5874  156.8968 C.ar    1  UNL1        0.0045
     17 C         144.2554  132.1261  156.8680 C.ar    1  UNL1        0.0001
     18 C         143.3198  131.1533  156.2136 C.ar    1  UNL1        0.0039
     19 C         142.0471  131.6418  155.5879 C.ar    1  UNL1        0.0716
     20 C         141.7099  133.1031  155.6168 C.ar    1  UNL1        0.0084
     21 C         141.1115  130.6690  154.9335 C.3     1  UNL1        0.4186
     22 F         140.1759  129.6961  154.2790 F       1  UNL1       -0.1659
     23 F         140.4763  131.7933  154.1704 F       1  UNL1       -0.1659
     24 F         141.7468  129.5446  155.6966 F       1  UNL1       -0.1659
     25 C         138.0840  138.8565  162.5589 C.3     1  UNL1        0.0721
     26 C         138.9870  138.1837  163.5499 C.3     1  UNL1        0.0174
     27 C         139.0862  138.7091  164.9514 C.3     1  UNL1        0.0048
     28 C         140.2463  139.5734  165.3479 C.3     1  UNL1        0.0216
     29 C         140.3456  140.0988  166.7494 C.3     1  UNL1        0.0937
     30 N         139.2847  139.7600  167.7542 N.am    1  UNL1       -0.2760
     31 C         139.3840  140.2854  169.1558 C.2     1  UNL1        0.2512
     32 O         138.3231  139.9466  170.1607 O.2     1  UNL1       -0.2698
     33 C         138.1246  138.8957  167.3577 C.3     1  UNL1        0.0937
     34 C         138.0254  138.3703  165.9563 C.3     1  UNL1        0.0216
     35 C         140.5441  141.1496  169.5523 C.ar    1  UNL1        0.0810
     36 C         140.3823  142.6394  169.6158 C.ar    1  UNL1        0.0068
     37 C         141.5424  143.5037  170.0123 C.ar    1  UNL1        0.0003
     38 C         142.8643  142.8780  170.3454 C.ar    1  UNL1        0.0023
     39 C         143.0262  141.3881  170.2819 C.ar    1  UNL1        0.0298
     40 C         141.8661  140.5238  169.8853 C.ar    1  UNL1        0.1445
     41 F         142.0279  139.0340  169.8218 F       1  UNL1       -0.2040
@<TRIPOS>BOND
     1     6     7    2
     2     7    10    1
     3    10    11    1
     4    11    12   am
     5    12    13    2
     6    12    15    1
     7    15    16   ar
     8    16    17   ar
     9    17    18   ar
    10    18    19   ar
    11    19    21    1
    12    21    22    1
    13    21    23    1
    14    21    24    1
    15    19    20   ar
    16     7     8   am
    17     1     8    1
    18     1     2    1
    19     2     3    1
    20     3     4    1
    21     4    25    1
    22    25    26    1
    23    26    27    1
    24    27    28    1
    25    28    29    1
    26    29    30    1
    27    30    31   am
    28    31    32    2
    29    31    35    1
    30    35    36   ar
    31    36    37   ar
    32    37    38   ar
    33    38    39   ar
    34    39    40   ar
    35    40    41    1
    36    30    33    1
    37    33    34    1
    38     4     5    1
    39    20    15   ar
    40     5     1    1
    41    34    27    1
    42    40    35   ar
    43    11    14    1
    44     8     9    1
@<TRIPOS>MOLECULE
*****
 41 44 0 0 0
SMALL
GASTEIGER

@<TRIPOS>ATOM
      1 C         138.2656  140.3218  159.4133 C.3     1  UNL1        0.0889
      2 C         138.8977  141.5200  160.0572 C.3     1  UNL1        0.0383
      3 C         139.6000  141.0615  161.3008 C.3     1  UNL1        0.0739
      4 N         139.4018  139.5798  161.4256 N.3     1  UNL1       -0.2712
      5 C         138.5771  139.1227  160.2590 C.3     1  UNL1        0.0919
      6 O         138.2038  142.7682  157.6780 O.2     1  UNL1       -0.2733
      7 C         137.4319  141.5457  157.2785 C.2     1  UNL1        0.2425
      8 N         137.4628  140.3225  158.1461 N.am    1  UNL1       -0.3032
      9 H         136.9562  139.5201  157.8840 H       1  UNL1        0.1495
     10 C         136.6291  141.5463  156.0115 C.3     1  UNL1        0.1759
     11 N         135.1305  141.5661  156.0730 N.am    1  UNL1       -0.2931
     12 C         134.3559  140.2932  155.9010 C.2     1  UNL1        0.2462
     13 O         135.0798  139.0004  155.6674 O.2     1  UNL1       -0.2701
     14 H         134.6553  142.4146  156.2264 H       1  UNL1        0.1502
     15 C         132.8572  140.3131  155.9626 C.ar    1  UNL1        0.0533
     16 C         132.0990  141.4800  155.4030 C.ar    1  UNL1        0.0045
     17 C         130.6004  141.4998  155.4646 C.ar    1  UNL1        0.0001
     18 C         129.8601  140.3526  156.0858 C.ar    1  UNL1        0.0039
     19 C         130.6183  139.1856  156.6454 C.ar    1  UNL1        0.0716
     20 C         132.1169  139.1659  156.5838 C.ar    1  UNL1        0.0084
     21 C         129.8780  138.0385  157.2666 C.3     1  UNL1        0.4186
     22 F         129.1377  136.8913  157.8878 F       1  UNL1       -0.1659
     23 F         129.1256  137.8304  155.9857 F       1  UNL1       -0.1659
     24 F         130.6303  138.2465  158.5475 F       1  UNL1       -0.1659
     25 C         139.9347  138.7084  162.5240 C.3     1  UNL1        0.0721
     26 C         139.0083  138.1812  163.5794 C.3     1  UNL1        0.0174
     27 C         139.0880  138.7117  164.9802 C.3     1  UNL1        0.0048
     28 C         140.2407  139.5803  165.3888 C.3     1  UNL1        0.0216
     29 C         140.3203  140.1108  166.7896 C.3     1  UNL1        0.0937
     30 N         139.2473  139.7727  167.7817 N.am    1  UNL1       -0.2760
     31 C         139.3270  140.3033  169.1826 C.2     1  UNL1        0.2512
     32 O         138.2540  139.9652  170.1747 O.2     1  UNL1       -0.2698
     33 C         138.0946  138.9042  167.3731 C.3     1  UNL1        0.0937
     34 C         138.0150  138.3737  165.9723 C.3     1  UNL1        0.0216
     35 C         140.4796  141.1718  169.5912 C.ar    1  UNL1        0.0810
     36 C         140.3180  142.6624  169.6318 C.ar    1  UNL1        0.0068
     37 C         141.4707  143.5310  170.0404 C.ar    1  UNL1        0.0003
     38 C         142.7850  142.9088  170.4084 C.ar    1  UNL1        0.0023
     39 C         142.9466  141.4181  170.3678 C.ar    1  UNL1        0.0298
     40 C         141.7940  140.5495  169.9592 C.ar    1  UNL1        0.1445
     41 F         141.9556  139.0589  169.9186 F       1  UNL1       -0.2040
@<TRIPOS>BOND
     1     6     7    2
     2     7    10    1
     3    10    11    1
     4    11    12   am
     5    12    13    2
     6    12    15    1
     7    15    16   ar
     8    16    17   ar
     9    17    18   ar
    10    18    19   ar
    11    19    21    1
    12    21    22    1
    13    21    23    1
    14    21    24    1
    15    19    20   ar
    16     7     8   am
    17     1     8    1
    18     1     2    1
    19     2     3    1
    20     3     4    1
    21     4    25    1
    22    25    26    1
    23    26    27    1
    24    27    28    1
    25    28    29    1
    26    29    30    1
    27    30    31   am
    28    31    32    2
    29    31    35    1
    30    35    36   ar
    31    36    37   ar
    32    37    38   ar
    33    38    39   ar
    34    39    40   ar
    35    40    41    1
    36    30    33    1
    37    33    34    1
    38     4     5    1
    39    20    15   ar
    40     5     1    1
    41    34    27    1
    42    40    35   ar
    43    11    14    1
    44     8     9    1
@<TRIPOS>MOLECULE
*****
 41 44 0 0 0
SMALL
GASTEIGER

@<TRIPOS>ATOM
      1 C         141.1100  145.0629  159.4706 C.3     1  UNL1        0.0889
      2 C         141.7838  145.4292  158.1815 C.3     1  UNL1        0.0383
      3 C         141.0128  144.7987  157.0600 C.3     1  UNL1        0.0739
      4 N         139.8623  144.0427  157.6559 N.3     1  UNL1       -0.2712
      5 C         139.9225  144.2060  159.1457 C.3     1  UNL1        0.0919
      6 O         142.3176  143.0487  161.3374 O.2     1  UNL1       -0.2733
      7 C         142.1507  144.4731  161.7769 C.2     1  UNL1        0.2425
      8 N         141.5470  145.4802  160.8436 N.am    1  UNL1       -0.3032
      9 H         141.4375  146.4151  161.1321 H       1  UNL1        0.1495
     10 C         142.5877  144.8904  163.1498 C.3     1  UNL1        0.1759
     11 N         142.6056  143.8902  164.2676 N.am    1  UNL1       -0.2931
     12 C         141.3164  143.3478  164.8094 C.2     1  UNL1        0.2462
     13 O         140.0092  143.8055  164.2335 O.2     1  UNL1       -0.2701
     14 H         143.4636  143.5898  164.6456 H       1  UNL1        0.1502
     15 C         141.3344  142.3476  165.9272 C.ar    1  UNL1        0.0533
     16 C         140.5295  142.5954  167.1684 C.ar    1  UNL1        0.0045
     17 C         140.5475  141.5953  168.2861 C.ar    1  UNL1        0.0001
     18 C         141.3704  140.3472  168.1626 C.ar    1  UNL1        0.0039
     19 C         142.1753  140.0994  166.9214 C.ar    1  UNL1        0.0716
     20 C         142.1573  141.0996  165.8037 C.ar    1  UNL1        0.0084
     21 C         142.9982  138.8514  166.7979 C.3     1  UNL1        0.4186
     22 F         143.8211  137.6033  166.6744 F       1  UNL1       -0.1659
     23 F         143.0083  139.0057  165.3059 F       1  UNL1       -0.1659
     24 F         142.9880  138.6970  168.2899 F       1  UNL1       -0.1659
     25 C         138.8326  143.2608  156.8955 C.3     1  UNL1        0.0721
     26 C         138.6677  141.7918  157.1500 C.3     1  UNL1        0.0174
     27 C         139.2393  141.1772  158.3932 C.3     1  UNL1        0.0048
     28 C         138.3796  141.0108  159.6111 C.3     1  UNL1        0.0216
     29 C         138.9512  140.3962  160.8544 C.3     1  UNL1        0.0937
     30 N         140.3825  139.9482  160.8797 N.am    1  UNL1       -0.2760
     31 C         140.9541  139.3336  162.1230 C.2     1  UNL1        0.2512
     32 O         142.3854  138.8856  162.1483 O.2     1  UNL1       -0.2698
     33 C         141.2422  140.1147  159.6618 C.3     1  UNL1        0.0937
     34 C         140.6706  140.7292  158.4186 C.3     1  UNL1        0.0216
     35 C         140.0943  139.1672  163.3408 C.ar    1  UNL1        0.0810
     36 C         139.2615  140.3133  163.8333 C.ar    1  UNL1        0.0068
     37 C         138.4018  140.1469  165.0511 C.ar    1  UNL1        0.0003
     38 C         138.3749  138.8342  165.7765 C.ar    1  UNL1        0.0023
     39 C         139.2078  137.6880  165.2839 C.ar    1  UNL1        0.0298
     40 C         140.0675  137.8544  164.0661 C.ar    1  UNL1        0.1445
     41 F         140.9003  136.7083  163.5736 F       1  UNL1       -0.2040
@<TRIPOS>BOND
     1     6     7    2
     2     7    10    1
     3    10    11    1
     4    11    12   am
     5    12    13    2
     6    12    15    1
     7    15    16   ar
     8    16    17   ar
     9    17    18   ar
    10    18    19   ar
    11    19    21    1
    12    21    22    1
    13    21    23    1
    14    21    24    1
    15    19    20   ar
    16     7     8   am
    17     1     8    1
    18     1     2    1
    19     2     3    1
    20     3     4    1
    21     4    25    1
    22    25    26    1
    23    26    27    1
    24    27    28    1
    25    28    29    1
    26    29    30    1
    27    30    31   am
    28    31    32    2
    29    31    35    1
    30    35    36   ar
    31    36    37   ar
    32    37    38   ar
    33    38    39   ar
    34    39    40   ar
    35    40    41    1
    36    30    33    1
    37    33    34    1
    38     4     5    1
    39    20    15   ar
    40     5     1    1
    41    34    27    1
    42    40    35   ar
    43    11    14    1
    44     8     9    1
@<TRIPOS>MOLECULE
*****
 41 44 0 0 0
SMALL
GASTEIGER

@<TRIPOS>ATOM
      1 C         143.4990  140.4479  158.1531 C.3     1  UNL1        0.0889
      2 C         143.4114  140.1144  156.6932 C.3     1  UNL1        0.0383
      3 C         143.0720  141.3723  155.9499 C.3     1  UNL1        0.0739
      4 N         142.9499  142.4833  156.9504 N.3     1  UNL1       -0.2712
      5 C         143.2138  141.9120  158.3120 C.3     1  UNL1        0.0919
      6 O         141.6079  138.2047  158.7789 O.2     1  UNL1       -0.2733
      7 C         142.8706  138.3647  159.5726 C.2     1  UNL1        0.2425
      8 N         143.8161  139.4862  159.2597 N.am    1  UNL1       -0.3032
      9 H         144.6449  139.5912  159.7807 H       1  UNL1        0.1495
     10 C         143.1877  137.4031  160.6793 C.3     1  UNL1        0.1759
     11 N         142.6336  137.6326  162.0542 N.am    1  UNL1       -0.2931
     12 C         143.1862  138.7325  162.9115 C.2     1  UNL1        0.2462
     13 O         144.2928  139.6028  162.3939 O.2     1  UNL1       -0.2701
     14 H         141.9073  137.0614  162.3939 H       1  UNL1        0.1502
     15 C         142.6321  138.9621  164.2864 C.ar    1  UNL1        0.0533
     16 C         143.5606  139.2222  165.4354 C.ar    1  UNL1        0.0045
     17 C         143.0065  139.4517  166.8102 C.ar    1  UNL1        0.0001
     18 C         141.5239  139.4212  167.0361 C.ar    1  UNL1        0.0039
     19 C         140.5954  139.1611  165.8871 C.ar    1  UNL1        0.0716
     20 C         141.1495  138.9315  164.5123 C.ar    1  UNL1        0.0084
     21 C         139.1128  139.1305  166.1129 C.3     1  UNL1        0.4186
     22 F         137.6302  139.1000  166.3388 F       1  UNL1       -0.1659
     23 F         138.9006  138.7737  164.6715 F       1  UNL1       -0.1659
     24 F         139.3250  139.4874  167.5543 F       1  UNL1       -0.1659
     25 C         142.6216  143.9143  156.6432 C.3     1  UNL1        0.0721
     26 C         141.2826  144.4745  157.0219 C.3     1  UNL1        0.0174
     27 C         140.5723  143.9617  158.2394 C.3     1  UNL1        0.0048
     28 C         140.9408  144.4815  159.5973 C.3     1  UNL1        0.0216
     29 C         140.2305  143.9687  160.8149 C.3     1  UNL1        0.0937
     30 N         139.1516  142.9361  160.6744 N.am    1  UNL1       -0.2760
     31 C         138.4412  142.4232  161.8921 C.2     1  UNL1        0.2512
     32 O         137.3623  141.3906  161.7517 O.2     1  UNL1       -0.2698
     33 C         138.7830  142.4163  159.3165 C.3     1  UNL1        0.0937
     34 C         139.4933  142.9291  158.0990 C.3     1  UNL1        0.0216
     35 C         138.8097  142.9430  163.2500 C.ar    1  UNL1        0.0810
     36 C         139.8631  142.2463  164.0592 C.ar    1  UNL1        0.0068
     37 C         140.2317  142.7661  165.4171 C.ar    1  UNL1        0.0003
     38 C         139.5468  143.9826  165.9658 C.ar    1  UNL1        0.0023
     39 C         138.4934  144.6793  165.1565 C.ar    1  UNL1        0.0298
     40 C         138.1248  144.1596  163.7986 C.ar    1  UNL1        0.1445
     41 F         137.0714  144.8562  162.9894 F       1  UNL1       -0.2040
@<TRIPOS>BOND
     1     6     7    2
     2     7    10    1
     3    10    11    1
     4    11    12   am
     5    12    13    2
     6    12    15    1
     7    15    16   ar
     8    16    17   ar
     9    17    18   ar
    10    18    19   ar
    11    19    21    1
    12    21    22    1
    13    21    23    1
    14    21    24    1
    15    19    20   ar
    16     7     8   am
    17     1     8    1
    18     1     2    1
    19     2     3    1
    20     3     4    1
    21     4    25    1
    22    25    26    1
    23    26    27    1
    24    27    28    1
    25    28    29    1
    26    29    30    1
    27    30    31   am
    28    31    32    2
    29    31    35    1
    30    35    36   ar
    31    36    37   ar
    32    37    38   ar
    33    38    39   ar
    34    39    40   ar
    35    40    41    1
    36    30    33    1
    37    33    34    1
    38     4     5    1
    39    20    15   ar
    40     5     1    1
    41    34    27    1
    42    40    35   ar
    43    11    14    1
    44     8     9    1
@<TRIPOS>MOLECULE
*****
 41 44 0 0 0
SMALL
GASTEIGER

@<TRIPOS>ATOM
      1 C         144.1752  142.3566  159.2782 C.3     1  UNL1        0.0889
      2 C         145.2395  142.5310  158.2357 C.3     1  UNL1        0.0383
      3 C         145.0935  141.4236  157.2346 C.3     1  UNL1        0.0739
      4 N         143.9389  140.5648  157.6583 N.3     1  UNL1       -0.2712
      5 C         143.3714  141.1415  158.9213 C.3     1  UNL1        0.0919
      6 O         145.2853  141.5779  161.9543 O.2     1  UNL1       -0.2733
      7 C         144.5085  142.8526  161.8067 C.2     1  UNL1        0.2425
      8 N         143.9535  143.2420  160.4687 N.am    1  UNL1       -0.3032
      9 H         143.4437  144.0786  160.3718 H       1  UNL1        0.1495
     10 C         144.2869  143.7380  162.9970 C.3     1  UNL1        0.1759
     11 N         144.1857  143.1392  164.3686 N.am    1  UNL1       -0.2931
     12 C         143.0249  142.2556  164.7175 C.2     1  UNL1        0.2462
     13 O         141.9652  141.9708  163.6949 O.2     1  UNL1       -0.2701
     14 H         144.8812  143.3262  165.0399 H       1  UNL1        0.1502
     15 C         142.9238  141.6569  166.0892 C.ar    1  UNL1        0.0533
     16 C         142.6264  140.1955  166.2495 C.ar    1  UNL1        0.0045
     17 C         142.5253  139.5968  167.6211 C.ar    1  UNL1        0.0001
     18 C         142.7216  140.4595  168.8324 C.ar    1  UNL1        0.0039
     19 C         143.0190  141.9209  168.6720 C.ar    1  UNL1        0.0716
     20 C         143.1201  142.5196  167.3005 C.ar    1  UNL1        0.0084
     21 C         143.2152  142.7837  169.8833 C.3     1  UNL1        0.4186
     22 F         143.4115  143.6464  171.0946 F       1  UNL1       -0.1659
     23 F         141.7553  143.1280  169.8746 F       1  UNL1       -0.1659
     24 F         144.6751  142.4394  169.8920 F       1  UNL1       -0.1659
     25 C         143.4396  139.3438  156.9443 C.3     1  UNL1        0.0721
     26 C         142.8680  138.1987  157.7267 C.3     1  UNL1        0.0174
     27 C         141.7122  138.4275  158.6550 C.3     1  UNL1        0.0048
     28 C         141.9038  138.2986  160.1371 C.3     1  UNL1        0.0216
     29 C         140.7479  138.5274  161.0655 C.3     1  UNL1        0.0937
     30 N         139.4006  138.8852  160.5116 N.am    1  UNL1       -0.2760
     31 C         138.2448  139.1140  161.4400 C.2     1  UNL1        0.2512
     32 O         136.8974  139.4718  160.8862 O.2     1  UNL1       -0.2698
     33 C         139.2091  139.0141  159.0295 C.3     1  UNL1        0.0937
     34 C         140.3648  138.7853  158.1012 C.3     1  UNL1        0.0216
     35 C         138.4364  138.9851  162.9221 C.ar    1  UNL1        0.0810
     36 C         138.8088  137.6598  163.5177 C.ar    1  UNL1        0.0068
     37 C         139.0004  137.5309  164.9998 C.ar    1  UNL1        0.0003
     38 C         138.8195  138.7273  165.8863 C.ar    1  UNL1        0.0023
     39 C         138.4470  140.0526  165.2907 C.ar    1  UNL1        0.0298
     40 C         138.2555  140.1816  163.8086 C.ar    1  UNL1        0.1445
     41 F         137.8830  141.5068  163.2130 F       1  UNL1       -0.2040
@<TRIPOS>BOND
     1     6     7    2
     2     7    10    1
     3    10    11    1
     4    11    12   am
     5    12    13    2
     6    12    15    1
     7    15    16   ar
     8    16    17   ar
     9    17    18   ar
    10    18    19   ar
    11    19    21    1
    12    21    22    1
    13    21    23    1
    14    21    24    1
    15    19    20   ar
    16     7     8   am
    17     1     8    1
    18     1     2    1
    19     2     3    1
    20     3     4    1
    21     4    25    1
    22    25    26    1
    23    26    27    1
    24    27    28    1
    25    28    29    1
    26    29    30    1
    27    30    31   am
    28    31    32    2
    29    31    35    1
    30    35    36   ar
    31    36    37   ar
    32    37    38   ar
    33    38    39   ar
    34    39    40   ar
    35    40    41    1
    36    30    33    1
    37    33    34    1
    38     4     5    1
    39    20    15   ar
    40     5     1    1
    41    34    27    1
    42    40    35   ar
    43    11    14    1
    44     8     9    1
