@<TRIPOS>MOLECULE
*****
 30 32 0 0 0
SMALL
GASTEIGER

@<TRIPOS>ATOM
      1 N         138.2096  139.8053  163.3344 N.3     1  UNL1       -0.2715
      2 C         138.6779  140.0335  164.7411 C.3     1  UNL1        0.0610
      3 C         138.1302  139.1965  165.8589 C.3     1  UNL1        0.0375
      4 C         138.5985  139.4247  167.2656 C.3     1  UNL1        0.0950
      5 N         139.6144  140.4897  167.5544 N.pl3   1  UNL1       -0.2785
      6 C         140.1621  141.3267  166.4366 C.3     1  UNL1        0.0950
      7 C         139.6939  141.0986  165.0299 C.3     1  UNL1        0.0375
      8 C         140.0826  140.7179  168.9611 C.ar    1  UNL1        0.2163
      9 N         141.1362  141.6948  169.3922 N.ar    1  UNL1       -0.1804
     10 C         141.2842  141.5898  170.8812 C.ar    1  UNL1        0.2331
     11 N         142.2284  142.3868  171.7316 N.pl3   1  UNL1       -0.3262
     12 N         140.3222  140.5481  171.3704 N.ar    1  UNL1       -0.1354
     13 N         139.5796  140.0092  170.1837 N.ar    1  UNL1       -0.2450
     14 H         142.8242  143.0511  171.3158 H       1  UNL1        0.1452
     15 H         142.2524  142.2455  172.7056 H       1  UNL1        0.1452
     16 H         138.8842  139.3126  170.2037 H       1  UNL1        0.1919
     17 C         137.4868  140.8944  162.5987 C.3     1  UNL1        0.1019
     18 C         138.2634  141.9740  161.9049 C.3     1  UNL1        0.1313
     19 C         139.5691  141.6503  161.2412 C.3     1  UNL1        0.0335
     20 C         138.1346  144.3528  162.9415 C.3     1  UNL1        0.1741
     21 O         137.7343  143.3772  161.8747 O.3     1  UNL1       -0.3522
     22 C         138.4643  138.4880  162.6636 C.3     1  UNL1        0.0768
     23 C         139.5016  137.5545  163.2134 C.3     1  UNL1        0.0437
     24 C         140.8915  138.0514  163.4809 C.ar    1  UNL1       -0.0207
     25 C         141.6572  138.7555  162.4003 C.ar    1  UNL1       -0.0034
     26 C         143.0470  139.2524  162.6678 C.ar    1  UNL1        0.0111
     27 C         143.6711  139.0450  164.0160 C.ar    1  UNL1        0.0577
     28 CL        145.0609  139.5419  164.2835 Cl      1  UNL1       -0.0822
     29 C         142.9053  138.3408  165.0966 C.ar    1  UNL1        0.0111
     30 C         141.5156  137.8440  164.8290 C.ar    1  UNL1       -0.0034
@<TRIPOS>BOND
     1    20    21    1
     2    21    18    1
     3    18    19    1
     4    18    17    1
     5    17     1    1
     6     1    22    1
     7    22    23    1
     8    23    24    1
     9    24    25   ar
    10    25    26   ar
    11    26    27   ar
    12    27    28    1
    13    27    29   ar
    14    29    30   ar
    15     1     2    1
    16     2     3    1
    17     3     4    1
    18     4     5    1
    19     5     8    1
    20     8     9   ar
    21     9    10   ar
    22    10    11    1
    23    10    12   ar
    24    12    13   ar
    25     5     6    1
    26     6     7    1
    27    30    24   ar
    28     7     2    1
    29    13     8   ar
    30    11    14    1
    31    11    15    1
    32    13    16    1
@<TRIPOS>MOLECULE
*****
 30 32 0 0 0
SMALL
GASTEIGER

@<TRIPOS>ATOM
      1 N         138.7247  138.9851  163.5414 N.3     1  UNL1       -0.2715
      2 C         139.0850  139.5080  164.9004 C.3     1  UNL1        0.0610
      3 C         138.3401  139.0277  166.1105 C.3     1  UNL1        0.0375
      4 C         138.7004  139.5505  167.4695 C.3     1  UNL1        0.0950
      5 N         139.8056  140.5536  167.6183 N.pl3   1  UNL1       -0.2785
      6 C         140.5505  141.0340  166.4082 C.3     1  UNL1        0.0950
      7 C         140.1902  140.5111  165.0492 C.3     1  UNL1        0.0375
      8 C         140.1659  141.0765  168.9773 C.ar    1  UNL1        0.2163
      9 N         141.4752  141.6979  169.3643 N.ar    1  UNL1       -0.1804
     10 C         141.3986  142.0752  170.8141 C.ar    1  UNL1        0.2331
     11 N         142.4875  142.7263  171.6143 N.pl3   1  UNL1       -0.3262
     12 N         140.0421  141.6870  171.3231 N.ar    1  UNL1       -0.1354
     13 N         139.2802  141.0698  170.1879 N.ar    1  UNL1       -0.2450
     14 H         143.3482  142.9438  171.1888 H       1  UNL1        0.1452
     15 H         142.3414  142.9362  172.5650 H       1  UNL1        0.1452
     16 H         138.3604  140.7215  170.2300 H       1  UNL1        0.1919
     17 C         139.2099  137.6347  163.1045 C.3     1  UNL1        0.1019
     18 C         140.6772  137.3240  163.1196 C.3     1  UNL1        0.1313
     19 C         141.3600  136.9908  164.4130 C.3     1  UNL1        0.0335
     20 C         141.3286  138.5066  160.8999 C.3     1  UNL1        0.1741
     21 O         141.4619  137.3465  161.8414 O.3     1  UNL1       -0.3522
     22 C         137.8791  139.8127  162.6193 C.3     1  UNL1        0.0768
     23 C         137.2755  141.0970  163.1054 C.3     1  UNL1        0.0437
     24 C         137.9660  142.4006  162.8332 C.ar    1  UNL1       -0.0207
     25 C         137.9535  143.4864  163.8680 C.ar    1  UNL1       -0.0034
     26 C         138.6439  144.7898  163.5957 C.ar    1  UNL1        0.0111
     27 C         139.3469  145.0075  162.2887 C.ar    1  UNL1        0.0577
     28 CL        140.0374  146.3111  162.0165 Cl      1  UNL1       -0.0822
     29 C         139.3595  143.9217  161.2539 C.ar    1  UNL1        0.0111
     30 C         138.6690  142.6183  161.5261 C.ar    1  UNL1       -0.0034
@<TRIPOS>BOND
     1    20    21    1
     2    21    18    1
     3    18    19    1
     4    18    17    1
     5    17     1    1
     6     1    22    1
     7    22    23    1
     8    23    24    1
     9    24    25   ar
    10    25    26   ar
    11    26    27   ar
    12    27    28    1
    13    27    29   ar
    14    29    30   ar
    15     1     2    1
    16     2     3    1
    17     3     4    1
    18     4     5    1
    19     5     8    1
    20     8     9   ar
    21     9    10   ar
    22    10    11    1
    23    10    12   ar
    24    12    13   ar
    25     5     6    1
    26     6     7    1
    27    30    24   ar
    28     7     2    1
    29    13     8   ar
    30    11    14    1
    31    11    15    1
    32    13    16    1
@<TRIPOS>MOLECULE
*****
 30 32 0 0 0
SMALL
GASTEIGER

@<TRIPOS>ATOM
      1 N         139.1849  139.9674  166.5797 N.3     1  UNL1       -0.2715
      2 C         139.3779  140.9844  165.4941 C.3     1  UNL1        0.0610
      3 C         140.7624  141.3928  165.0865 C.3     1  UNL1        0.0375
      4 C         140.9554  142.4097  164.0009 C.3     1  UNL1        0.0950
      5 N         139.7639  143.0182  163.3228 N.pl3   1  UNL1       -0.2785
      6 C         138.3792  142.6098  163.7303 C.3     1  UNL1        0.0950
      7 C         138.1862  141.5929  164.8160 C.3     1  UNL1        0.0375
      8 C         139.9568  144.0352  162.2372 C.ar    1  UNL1        0.2163
      9 N         141.1033  144.0868  161.2711 N.ar    1  UNL1       -0.1804
     10 C         140.8922  145.2626  160.3639 C.ar    1  UNL1        0.2331
     11 N         141.7989  145.6885  159.2474 N.pl3   1  UNL1       -0.3262
     12 N         139.6154  145.9376  160.7691 N.ar    1  UNL1       -0.1354
     13 N         139.0374  145.1789  161.9269 N.ar    1  UNL1       -0.2450
     14 H         142.6190  145.1782  159.0573 H       1  UNL1        0.1452
     15 H         141.5738  146.4785  158.7046 H       1  UNL1        0.1452
     16 H         138.2012  145.3940  162.4000 H       1  UNL1        0.1919
     17 C         140.0470  140.0073  167.8066 C.3     1  UNL1        0.1019
     18 C         139.6315  140.8319  168.9886 C.3     1  UNL1        0.1313
     19 C         138.6836  140.2642  170.0032 C.3     1  UNL1        0.0335
     20 C         140.5493  142.7209  170.5182 C.3     1  UNL1        0.1741
     21 O         140.1638  142.2242  169.1562 O.3     1  UNL1       -0.3522
     22 C         138.1297  138.9106  166.4385 C.3     1  UNL1        0.0768
     23 C         138.4218  137.6575  165.6675 C.3     1  UNL1        0.0437
     24 C         139.3393  137.7032  164.4817 C.ar    1  UNL1       -0.0207
     25 C         140.8107  137.4749  164.6626 C.ar    1  UNL1       -0.0034
     26 C         141.7281  137.5205  163.4768 C.ar    1  UNL1        0.0111
     27 C         141.1740  137.7944  162.1100 C.ar    1  UNL1        0.0577
     28 CL        142.0915  137.8400  160.9241 Cl      1  UNL1       -0.0822
     29 C         139.7026  138.0227  161.9291 C.ar    1  UNL1        0.0111
     30 C         138.7852  137.9770  163.1149 C.ar    1  UNL1       -0.0034
@<TRIPOS>BOND
     1    20    21    1
     2    21    18    1
     3    18    19    1
     4    18    17    1
     5    17     1    1
     6     1    22    1
     7    22    23    1
     8    23    24    1
     9    24    25   ar
    10    25    26   ar
    11    26    27   ar
    12    27    28    1
    13    27    29   ar
    14    29    30   ar
    15     1     2    1
    16     2     3    1
    17     3     4    1
    18     4     5    1
    19     5     8    1
    20     8     9   ar
    21     9    10   ar
    22    10    11    1
    23    10    12   ar
    24    12    13   ar
    25     5     6    1
    26     6     7    1
    27    30    24   ar
    28     7     2    1
    29    13     8   ar
    30    11    14    1
    31    11    15    1
    32    13    16    1
@<TRIPOS>MOLECULE
*****
 30 32 0 0 0
SMALL
GASTEIGER

@<TRIPOS>ATOM
      1 N         141.1553  141.2003  166.7880 N.3     1  UNL1       -0.2715
      2 C         141.0753  141.9558  165.4946 C.3     1  UNL1        0.0610
      3 C         141.7615  141.4237  164.2715 C.3     1  UNL1        0.0375
      4 C         141.6815  142.1792  162.9781 C.3     1  UNL1        0.0950
      5 N         140.9152  143.4668  162.9078 N.pl3   1  UNL1       -0.2785
      6 C         140.2289  143.9989  164.1309 C.3     1  UNL1        0.0950
      7 C         140.3090  143.2435  165.4243 C.3     1  UNL1        0.0375
      8 C         140.8352  144.2223  161.6144 C.ar    1  UNL1        0.2163
      9 N         141.9776  144.4976  160.6820 N.ar    1  UNL1       -0.1804
     10 C         141.4471  145.2806  159.5177 C.ar    1  UNL1        0.2331
     11 N         142.2465  145.7692  158.3463 N.pl3   1  UNL1       -0.3262
     12 N         139.9770  145.4891  159.7305 N.ar    1  UNL1       -0.1354
     13 N         139.5988  144.8351  161.0263 N.ar    1  UNL1       -0.2450
     14 H         143.2116  145.5812  158.2961 H       1  UNL1        0.1452
     15 H         141.8061  146.2778  157.6275 H       1  UNL1        0.1452
     16 H         138.6974  144.8120  161.4214 H       1  UNL1        0.1919
     17 C         142.4913  140.8100  167.3471 C.3     1  UNL1        0.1019
     18 C         142.8402  139.3607  167.5134 C.3     1  UNL1        0.1313
     19 C         143.0922  138.5066  166.3062 C.3     1  UNL1        0.0335
     20 C         142.4581  139.5429  170.0767 C.3     1  UNL1        0.1741
     21 O         142.9372  138.7654  168.8867 O.3     1  UNL1       -0.3522
     22 C         139.8992  140.8352  167.5222 C.3     1  UNL1        0.0768
     23 C         139.1287  139.6104  167.1273 C.3     1  UNL1        0.0437
     24 C         138.9722  139.2577  165.6777 C.ar    1  UNL1       -0.0207
     25 C         139.5903  138.0009  165.1406 C.ar    1  UNL1       -0.0034
     26 C         139.4338  137.6483  163.6911 C.ar    1  UNL1        0.0111
     27 C         138.6592  138.5525  162.7787 C.ar    1  UNL1        0.0577
     28 CL        138.5028  138.1998  161.3291 Cl      1  UNL1       -0.0822
     29 C         138.0412  139.8092  163.3158 C.ar    1  UNL1        0.0111
     30 C         138.1977  140.1618  164.7653 C.ar    1  UNL1       -0.0034
@<TRIPOS>BOND
     1    20    21    1
     2    21    18    1
     3    18    19    1
     4    18    17    1
     5    17     1    1
     6     1    22    1
     7    22    23    1
     8    23    24    1
     9    24    25   ar
    10    25    26   ar
    11    26    27   ar
    12    27    28    1
    13    27    29   ar
    14    29    30   ar
    15     1     2    1
    16     2     3    1
    17     3     4    1
    18     4     5    1
    19     5     8    1
    20     8     9   ar
    21     9    10   ar
    22    10    11    1
    23    10    12   ar
    24    12    13   ar
    25     5     6    1
    26     6     7    1
    27    30    24   ar
    28     7     2    1
    29    13     8   ar
    30    11    14    1
    31    11    15    1
    32    13    16    1
@<TRIPOS>MOLECULE
*****
 30 32 0 0 0
SMALL
GASTEIGER

@<TRIPOS>ATOM
      1 N         142.2396  138.2086  163.7049 N.3     1  UNL1       -0.2715
      2 C         142.2653  138.9887  164.9858 C.3     1  UNL1        0.0610
      3 C         141.5633  140.3114  165.0726 C.3     1  UNL1        0.0375
      4 C         141.5890  141.0915  166.3536 C.3     1  UNL1        0.0950
      5 N         142.3168  140.5489  167.5477 N.pl3   1  UNL1       -0.2785
      6 C         143.0189  139.2262  167.4609 C.3     1  UNL1        0.0950
      7 C         142.9932  138.4461  166.1799 C.3     1  UNL1        0.0375
      8 C         142.3425  141.3290  168.8286 C.ar    1  UNL1        0.2163
      9 N         143.2272  142.5028  169.1285 N.ar    1  UNL1       -0.1804
     10 C         142.9195  142.9715  170.5198 C.ar    1  UNL1        0.2331
     11 N         143.5720  144.1222  171.2269 N.pl3   1  UNL1       -0.3262
     12 N         141.8448  142.0875  171.0797 N.ar    1  UNL1       -0.1354
     13 N         141.4882  141.0724  170.0345 N.ar    1  UNL1       -0.2450
     14 H         144.2718  144.6457  170.7735 H       1  UNL1        0.1452
     15 H         143.3006  144.3540  172.1444 H       1  UNL1        0.1452
     16 H         140.8122  140.3624  170.1243 H       1  UNL1        0.1919
     17 C         141.1623  137.1924  163.4672 C.3     1  UNL1        0.1019
     18 C         139.7434  137.6362  163.2683 C.3     1  UNL1        0.1313
     19 C         138.8437  137.8259  164.4535 C.3     1  UNL1        0.0335
     20 C         137.7966  138.3055  161.6832 C.3     1  UNL1        0.1741
     21 O         139.2240  137.8902  161.8842 O.3     1  UNL1       -0.3522
     22 C         143.2913  138.4448  162.6616 C.3     1  UNL1        0.0768
     23 C         144.4784  139.3065  162.9750 C.3     1  UNL1        0.0437
     24 C         144.3170  140.7936  163.0874 C.ar    1  UNL1       -0.0207
     25 C         143.5714  141.5493  162.0278 C.ar    1  UNL1       -0.0034
     26 C         143.4101  143.0363  162.1402 C.ar    1  UNL1        0.0111
     27 C         143.9944  143.7676  163.3123 C.ar    1  UNL1        0.0577
     28 CL        143.8330  145.2547  163.4246 Cl      1  UNL1       -0.0822
     29 C         144.7400  143.0119  164.3719 C.ar    1  UNL1        0.0111
     30 C         144.9013  141.5249  164.2595 C.ar    1  UNL1       -0.0034
@<TRIPOS>BOND
     1    20    21    1
     2    21    18    1
     3    18    19    1
     4    18    17    1
     5    17     1    1
     6     1    22    1
     7    22    23    1
     8    23    24    1
     9    24    25   ar
    10    25    26   ar
    11    26    27   ar
    12    27    28    1
    13    27    29   ar
    14    29    30   ar
    15     1     2    1
    16     2     3    1
    17     3     4    1
    18     4     5    1
    19     5     8    1
    20     8     9   ar
    21     9    10   ar
    22    10    11    1
    23    10    12   ar
    24    12    13   ar
    25     5     6    1
    26     6     7    1
    27    30    24   ar
    28     7     2    1
    29    13     8   ar
    30    11    14    1
    31    11    15    1
    32    13    16    1
@<TRIPOS>MOLECULE
*****
 30 32 0 0 0
SMALL
GASTEIGER

@<TRIPOS>ATOM
      1 N         138.7286  143.6205  163.4169 N.3     1  UNL1       -0.2715
      2 C         139.1593  142.8552  164.6330 C.3     1  UNL1        0.0610
      3 C         139.8786  143.5582  165.7457 C.3     1  UNL1        0.0375
      4 C         140.3094  142.7929  166.9618 C.3     1  UNL1        0.0950
      5 N         140.0207  141.3246  167.0651 N.pl3   1  UNL1       -0.2785
      6 C         139.3014  140.6215  165.9523 C.3     1  UNL1        0.0950
      7 C         138.8707  141.3868  164.7362 C.3     1  UNL1        0.0375
      8 C         140.4515  140.5594  168.2812 C.ar    1  UNL1        0.2163
      9 N         141.8386  140.0645  168.5660 N.ar    1  UNL1       -0.1804
     10 C         141.8151  139.3538  169.8868 C.ar    1  UNL1        0.2331
     11 N         142.9874  138.7020  170.5582 N.pl3   1  UNL1       -0.3262
     12 N         140.4135  139.4095  170.4183 N.ar    1  UNL1       -0.1354
     13 N         139.5707  140.1546  169.4259 N.ar    1  UNL1       -0.2450
     14 H         143.8727  138.7182  170.1279 H       1  UNL1        0.1452
     15 H         142.8715  138.2580  171.4292 H       1  UNL1        0.1452
     16 H         138.6085  140.3445  169.5110 H       1  UNL1        0.1919
     17 C         137.7788  142.9984  162.4367 C.3     1  UNL1        0.1019
     18 C         138.2987  142.4114  161.1579 C.3     1  UNL1        0.1313
     19 C         138.5090  140.9306  161.0433 C.3     1  UNL1        0.0335
     20 C         138.6958  142.7317  158.6104 C.3     1  UNL1        0.1741
     21 O         138.6082  143.3052  159.9937 O.3     1  UNL1       -0.3522
     22 C         139.2477  145.0080  163.1811 C.3     1  UNL1        0.0768
     23 C         140.5190  145.2124  162.4117 C.3     1  UNL1        0.0437
     24 C         141.7628  144.4735  162.8083 C.ar    1  UNL1       -0.0207
     25 C         142.7130  145.0812  163.7971 C.ar    1  UNL1       -0.0034
     26 C         143.9567  144.3423  164.1937 C.ar    1  UNL1        0.0111
     27 C         144.2501  142.9958  163.6014 C.ar    1  UNL1        0.0577
     28 CL        145.4939  142.2569  163.9980 Cl      1  UNL1       -0.0822
     29 C         143.2999  142.3882  162.6126 C.ar    1  UNL1        0.0111
     30 C         142.0562  143.1270  162.2161 C.ar    1  UNL1       -0.0034
@<TRIPOS>BOND
     1    20    21    1
     2    21    18    1
     3    18    19    1
     4    18    17    1
     5    17     1    1
     6     1    22    1
     7    22    23    1
     8    23    24    1
     9    24    25   ar
    10    25    26   ar
    11    26    27   ar
    12    27    28    1
    13    27    29   ar
    14    29    30   ar
    15     1     2    1
    16     2     3    1
    17     3     4    1
    18     4     5    1
    19     5     8    1
    20     8     9   ar
    21     9    10   ar
    22    10    11    1
    23    10    12   ar
    24    12    13   ar
    25     5     6    1
    26     6     7    1
    27    30    24   ar
    28     7     2    1
    29    13     8   ar
    30    11    14    1
    31    11    15    1
    32    13    16    1
@<TRIPOS>MOLECULE
*****
 30 32 0 0 0
SMALL
GASTEIGER

@<TRIPOS>ATOM
      1 N         142.9995  140.1163  162.7914 N.3     1  UNL1       -0.2715
      2 C         142.6766  140.6676  164.1485 C.3     1  UNL1        0.0610
      3 C         142.0135  142.0070  164.2756 C.3     1  UNL1        0.0375
      4 C         141.6906  142.5584  165.6327 C.3     1  UNL1        0.0950
      5 N         142.0308  141.7702  166.8628 N.pl3   1  UNL1       -0.2785
      6 C         142.6939  140.4307  166.7358 C.3     1  UNL1        0.0950
      7 C         143.0168  139.8794  165.3786 C.3     1  UNL1        0.0375
      8 C         141.7079  142.3216  168.2199 C.ar    1  UNL1        0.2163
      9 N         140.3359  142.4686  168.8082 N.ar    1  UNL1       -0.1804
     10 C         140.4804  143.0606  170.1789 C.ar    1  UNL1        0.2331
     11 N         139.3603  143.3780  171.1247 N.pl3   1  UNL1       -0.3262
     12 N         141.9417  143.2793  170.4377 N.ar    1  UNL1       -0.1354
     13 N         142.7003  142.8226  169.2270 N.ar    1  UNL1       -0.2450
     14 H         138.4287  143.1974  170.8627 H       1  UNL1        0.1452
     15 H         139.5568  143.7670  172.0075 H       1  UNL1        0.1452
     16 H         143.6779  142.8473  169.1133 H       1  UNL1        0.1919
     17 C         144.0572  140.7667  161.9499 C.3     1  UNL1        0.1019
     18 C         144.8862  141.8810  162.5163 C.3     1  UNL1        0.1313
     19 C         145.8518  141.6057  163.6307 C.3     1  UNL1        0.0335
     20 C         144.1404  144.3523  162.8105 C.3     1  UNL1        0.1741
     21 O         144.7497  143.2707  161.9685 O.3     1  UNL1       -0.3522
     22 C         142.2647  138.9145  162.2758 C.3     1  UNL1        0.0768
     23 C         140.7677  138.9337  162.1824 C.3     1  UNL1        0.0437
     24 C         139.9370  138.8130  163.4256 C.ar    1  UNL1       -0.0207
     25 C         139.1380  139.9861  163.9105 C.ar    1  UNL1       -0.0034
     26 C         138.3073  139.8654  165.1536 C.ar    1  UNL1        0.0111
     27 C         138.2757  138.5715  165.9118 C.ar    1  UNL1        0.0577
     28 CL        137.4450  138.4508  167.1550 Cl      1  UNL1       -0.0822
     29 C         139.0748  137.3983  165.4269 C.ar    1  UNL1        0.0111
     30 C         139.9054  137.5191  164.1838 C.ar    1  UNL1       -0.0034
@<TRIPOS>BOND
     1    20    21    1
     2    21    18    1
     3    18    19    1
     4    18    17    1
     5    17     1    1
     6     1    22    1
     7    22    23    1
     8    23    24    1
     9    24    25   ar
    10    25    26   ar
    11    26    27   ar
    12    27    28    1
    13    27    29   ar
    14    29    30   ar
    15     1     2    1
    16     2     3    1
    17     3     4    1
    18     4     5    1
    19     5     8    1
    20     8     9   ar
    21     9    10   ar
    22    10    11    1
    23    10    12   ar
    24    12    13   ar
    25     5     6    1
    26     6     7    1
    27    30    24   ar
    28     7     2    1
    29    13     8   ar
    30    11    14    1
    31    11    15    1
    32    13    16    1
@<TRIPOS>MOLECULE
*****
 30 32 0 0 0
SMALL
GASTEIGER

@<TRIPOS>ATOM
      1 N         139.6909  138.1678  163.5636 N.3     1  UNL1       -0.2715
      2 C         139.9329  138.7109  164.9407 C.3     1  UNL1        0.0610
      3 C         141.3306  139.0152  165.3921 C.3     1  UNL1        0.0375
      4 C         141.5726  139.5583  166.7692 C.3     1  UNL1        0.0950
      5 N         140.4168  139.7970  167.6950 N.pl3   1  UNL1       -0.2785
      6 C         139.0190  139.4928  167.2437 C.3     1  UNL1        0.0950
      7 C         138.7770  138.9497  165.8666 C.3     1  UNL1        0.0375
      8 C         140.6588  140.3401  169.0722 C.ar    1  UNL1        0.2163
      9 N         141.6470  141.4079  169.4378 N.ar    1  UNL1       -0.1804
     10 C         141.5540  141.6384  170.9171 C.ar    1  UNL1        0.2331
     11 N         142.3643  142.6216  171.7088 N.pl3   1  UNL1       -0.3262
     12 N         140.5084  140.7132  171.4657 N.ar    1  UNL1       -0.1354
     13 N         139.9552  139.9109  170.3254 N.ar    1  UNL1       -0.2450
     14 H         143.0302  143.1882  171.2563 H       1  UNL1        0.1452
     15 H         142.2303  142.7002  172.6810 H       1  UNL1        0.1452
     16 H         139.2535  139.2232  170.3885 H       1  UNL1        0.1919
     17 C         140.7457  137.3442  162.8862 C.3     1  UNL1        0.1019
     18 C         141.7210  137.9961  161.9515 C.3     1  UNL1        0.1313
     19 C         141.2932  138.3725  160.5639 C.3     1  UNL1        0.0335
     20 C         144.0681  139.0187  161.5094 C.3     1  UNL1        0.1741
     21 O         143.1242  138.2718  162.4045 O.3     1  UNL1       -0.3522
     22 C         138.3941  138.4485  162.8639 C.3     1  UNL1        0.0768
     23 C         138.2191  139.7221  162.0911 C.3     1  UNL1        0.0437
     24 C         138.4866  141.0425  162.7508 C.ar    1  UNL1       -0.0207
     25 C         137.3884  141.7476  163.4902 C.ar    1  UNL1       -0.0034
     26 C         137.6559  143.0679  164.1498 C.ar    1  UNL1        0.0111
     27 C         139.0216  143.6831  164.0701 C.ar    1  UNL1        0.0577
     28 CL        139.2891  145.0035  164.7299 Cl      1  UNL1       -0.0822
     29 C         140.1198  142.9780  163.3308 C.ar    1  UNL1        0.0111
     30 C         139.8523  141.6577  162.6711 C.ar    1  UNL1       -0.0034
@<TRIPOS>BOND
     1    20    21    1
     2    21    18    1
     3    18    19    1
     4    18    17    1
     5    17     1    1
     6     1    22    1
     7    22    23    1
     8    23    24    1
     9    24    25   ar
    10    25    26   ar
    11    26    27   ar
    12    27    28    1
    13    27    29   ar
    14    29    30   ar
    15     1     2    1
    16     2     3    1
    17     3     4    1
    18     4     5    1
    19     5     8    1
    20     8     9   ar
    21     9    10   ar
    22    10    11    1
    23    10    12   ar
    24    12    13   ar
    25     5     6    1
    26     6     7    1
    27    30    24   ar
    28     7     2    1
    29    13     8   ar
    30    11    14    1
    31    11    15    1
    32    13    16    1
@<TRIPOS>MOLECULE
*****
 30 32 0 0 0
SMALL
GASTEIGER

@<TRIPOS>ATOM
      1 N         142.1065  139.6711  161.7777 N.3     1  UNL1       -0.2715
      2 C         142.3112  139.9777  163.2317 C.3     1  UNL1        0.0610
      3 C         141.9087  141.3145  163.7802 C.3     1  UNL1        0.0375
      4 C         142.1134  141.6211  165.2342 C.3     1  UNL1        0.0950
      5 N         142.7207  140.5910  166.1397 N.pl3   1  UNL1       -0.2785
      6 C         143.1233  139.2541  165.5912 C.3     1  UNL1        0.0950
      7 C         142.9185  138.9475  164.1372 C.3     1  UNL1        0.0375
      8 C         142.9254  140.8976  167.5937 C.ar    1  UNL1        0.2163
      9 N         143.1496  142.2579  168.1848 N.ar    1  UNL1       -0.1804
     10 C         143.3046  142.0987  169.6683 C.ar    1  UNL1        0.2331
     11 N         143.5457  143.2042  170.6532 N.pl3   1  UNL1       -0.3262
     12 N         143.1763  140.6402  169.9940 N.ar    1  UNL1       -0.1354
     13 N         142.9420  139.8978  168.7118 N.ar    1  UNL1       -0.2450
     14 H         143.6154  144.1352  170.3408 H       1  UNL1        0.1452
     15 H         143.6342  142.9987  171.6119 H       1  UNL1        0.1452
     16 H         142.8203  138.9252  168.6202 H       1  UNL1        0.1919
     17 C         142.9766  140.3225  160.7441 C.3     1  UNL1        0.1019
     18 C         143.9875  141.3515  161.1553 C.3     1  UNL1        0.1313
     19 C         143.8133  142.7822  160.7394 C.3     1  UNL1        0.0335
     20 C         145.5606  141.7633  163.1816 C.3     1  UNL1        0.1741
     21 O         145.1727  140.9499  161.9824 O.3     1  UNL1       -0.3522
     22 C         141.0316  138.7129  161.3574 C.3     1  UNL1        0.0768
     23 C         139.5975  139.0025  161.6883 C.3     1  UNL1        0.0437
     24 C         139.1255  138.9255  163.1101 C.ar    1  UNL1       -0.0207
     25 C         139.2400  137.6371  163.8697 C.ar    1  UNL1       -0.0034
     26 C         138.7681  137.5602  165.2914 C.ar    1  UNL1        0.0111
     27 C         138.1817  138.7717  165.9535 C.ar    1  UNL1        0.0577
     28 CL        137.7097  138.6947  167.3753 Cl      1  UNL1       -0.0822
     29 C         138.0672  140.0601  165.1940 C.ar    1  UNL1        0.0111
     30 C         138.5391  140.1370  163.7723 C.ar    1  UNL1       -0.0034
@<TRIPOS>BOND
     1    20    21    1
     2    21    18    1
     3    18    19    1
     4    18    17    1
     5    17     1    1
     6     1    22    1
     7    22    23    1
     8    23    24    1
     9    24    25   ar
    10    25    26   ar
    11    26    27   ar
    12    27    28    1
    13    27    29   ar
    14    29    30   ar
    15     1     2    1
    16     2     3    1
    17     3     4    1
    18     4     5    1
    19     5     8    1
    20     8     9   ar
    21     9    10   ar
    22    10    11    1
    23    10    12   ar
    24    12    13   ar
    25     5     6    1
    26     6     7    1
    27    30    24   ar
    28     7     2    1
    29    13     8   ar
    30    11    14    1
    31    11    15    1
    32    13    16    1
