@<TRIPOS>MOLECULE
*****
 20 22 0 0 0
SMALL
GASTEIGER

@<TRIPOS>ATOM
      1 C         138.9274  140.1214  164.7856 C.ar    1  UNL1        0.1484
      2 C         138.0939  139.3597  165.7730 C.ar    1  UNL1        0.0796
      3 C         138.4516  139.3796  167.2296 C.ar    1  UNL1        0.2016
      4 O         137.6181  138.6179  168.2170 O.2     1  UNL1       -0.2864
      5 C         139.6429  140.1611  167.6987 C.ar    1  UNL1        0.0732
      6 C         140.0006  140.1809  169.1553 C.ar    1  UNL1        0.0020
      7 C         141.1919  140.9624  169.6244 C.ar    1  UNL1       -0.0216
      8 C         141.5497  140.9823  171.0810 C.3     1  UNL1        0.0310
      9 C         142.0254  141.7241  168.6369 C.ar    1  UNL1       -0.0011
     10 C         141.6677  141.7043  167.1804 C.ar    1  UNL1        0.0373
     11 C         140.4764  140.9228  166.7113 C.ar    1  UNL1        0.1483
     12 O         140.1186  140.9030  165.2547 O.2     1  UNL1       -0.4533
     13 C         137.8541  140.0618  160.4159 C.ar    1  UNL1        0.1387
     14 C         137.9260  138.7779  161.1880 C.ar    1  UNL1        0.0370
     15 C         138.2838  138.7978  162.6446 C.ar    1  UNL1        0.0061
     16 C         138.5696  140.1016  163.3289 C.ar    1  UNL1        0.0349
     17 C         138.4976  141.3855  162.5568 C.ar    1  UNL1        0.0061
     18 C         138.1399  141.3656  161.1002 C.ar    1  UNL1        0.0370
     19 C         138.0682  141.0734  158.0324 C.3     1  UNL1        0.2525
     20 O         137.4963  140.0420  158.9592 O.3     1  UNL1       -0.4714
@<TRIPOS>BOND
     1    19    20    1
     2    20    13    1
     3    13    14   ar
     4    14    15   ar
     5    15    16   ar
     6    16     1    1
     7     1     2   ar
     8     2     3   ar
     9     3     4    2
    10     3     5   ar
    11     5     6   ar
    12     6     7   ar
    13     7     8    1
    14     7     9   ar
    15     9    10   ar
    16    10    11   ar
    17    11    12   ar
    18    16    17   ar
    19    17    18   ar
    20    18    13   ar
    21    12     1   ar
    22    11     5   ar
@<TRIPOS>MOLECULE
*****
 20 22 0 0 0
SMALL
GASTEIGER

@<TRIPOS>ATOM
      1 C         141.2550  138.9666  163.8744 C.ar    1  UNL1        0.1484
      2 C         139.7966  139.2136  164.1234 C.ar    1  UNL1        0.0796
      3 C         139.3147  139.5261  165.5091 C.ar    1  UNL1        0.2016
      4 O         137.8563  139.7732  165.7581 O.2     1  UNL1       -0.2864
      5 C         140.2913  139.5916  166.6458 C.ar    1  UNL1        0.0732
      6 C         139.8095  139.9042  168.0315 C.ar    1  UNL1        0.0020
      7 C         140.7860  139.9696  169.1681 C.ar    1  UNL1       -0.0216
      8 C         140.3042  140.2822  170.5539 C.3     1  UNL1        0.0310
      9 C         142.2444  139.7226  168.9191 C.ar    1  UNL1       -0.0011
     10 C         142.7263  139.4101  167.5334 C.ar    1  UNL1        0.0373
     11 C         141.7497  139.3446  166.3968 C.ar    1  UNL1        0.1483
     12 O         142.2315  139.0321  165.0111 O.2     1  UNL1       -0.4533
     13 C         142.7003  138.0290  159.7173 C.ar    1  UNL1        0.1387
     14 C         141.3006  138.5240  159.9308 C.ar    1  UNL1        0.0370
     15 C         140.8188  138.8365  161.3165 C.ar    1  UNL1        0.0061
     16 C         141.7368  138.6540  162.4887 C.ar    1  UNL1        0.0349
     17 C         143.1366  138.1590  162.2751 C.ar    1  UNL1        0.0061
     18 C         143.6183  137.8465  160.8895 C.ar    1  UNL1        0.0370
     19 C         142.1935  137.4285  157.2409 C.3     1  UNL1        0.2525
     20 O         143.1822  137.7165  158.3315 O.3     1  UNL1       -0.4714
@<TRIPOS>BOND
     1    19    20    1
     2    20    13    1
     3    13    14   ar
     4    14    15   ar
     5    15    16   ar
     6    16     1    1
     7     1     2   ar
     8     2     3   ar
     9     3     4    2
    10     3     5   ar
    11     5     6   ar
    12     6     7   ar
    13     7     8    1
    14     7     9   ar
    15     9    10   ar
    16    10    11   ar
    17    11    12   ar
    18    16    17   ar
    19    17    18   ar
    20    18    13   ar
    21    12     1   ar
    22    11     5   ar
@<TRIPOS>MOLECULE
*****
 20 22 0 0 0
SMALL
GASTEIGER

@<TRIPOS>ATOM
      1 C         140.8997  142.8508  165.0779 C.ar    1  UNL1        0.1484
      2 C         140.3547  143.3470  166.3844 C.ar    1  UNL1        0.0796
      3 C         140.6219  142.5829  167.6472 C.ar    1  UNL1        0.2016
      4 O         140.0770  143.0792  168.9536 O.2     1  UNL1       -0.2864
      5 C         141.4340  141.3225  167.6036 C.ar    1  UNL1        0.0732
      6 C         141.7012  140.5584  168.8664 C.ar    1  UNL1        0.0020
      7 C         142.5133  139.2980  168.8227 C.ar    1  UNL1       -0.0216
      8 C         142.7805  138.5338  170.0856 C.3     1  UNL1        0.0310
      9 C         143.0582  138.8018  167.5163 C.ar    1  UNL1       -0.0011
     10 C         142.7910  139.5659  166.2535 C.ar    1  UNL1        0.0373
     11 C         141.9790  140.8262  166.2971 C.ar    1  UNL1        0.1483
     12 O         141.7117  141.5904  165.0343 O.2     1  UNL1       -0.4533
     13 C         140.0980  145.1433  161.2896 C.ar    1  UNL1        0.1387
     14 C         139.1696  145.2802  162.4597 C.ar    1  UNL1        0.0370
     15 C         139.4368  144.5160  163.7225 C.ar    1  UNL1        0.0061
     16 C         140.6325  143.6150  163.8151 C.ar    1  UNL1        0.0349
     17 C         141.5608  143.4780  162.6449 C.ar    1  UNL1        0.0061
     18 C         141.2936  144.2422  161.3822 C.ar    1  UNL1        0.0370
     19 C         140.4088  145.4330  158.7265 C.3     1  UNL1        0.2525
     20 O         139.8308  145.9075  160.0267 O.3     1  UNL1       -0.4714
@<TRIPOS>BOND
     1    19    20    1
     2    20    13    1
     3    13    14   ar
     4    14    15   ar
     5    15    16   ar
     6    16     1    1
     7     1     2   ar
     8     2     3   ar
     9     3     4    2
    10     3     5   ar
    11     5     6   ar
    12     6     7   ar
    13     7     8    1
    14     7     9   ar
    15     9    10   ar
    16    10    11   ar
    17    11    12   ar
    18    16    17   ar
    19    17    18   ar
    20    18    13   ar
    21    12     1   ar
    22    11     5   ar
@<TRIPOS>MOLECULE
*****
 20 22 0 0 0
SMALL
GASTEIGER

@<TRIPOS>ATOM
      1 C         141.5237  143.8548  163.2499 C.ar    1  UNL1        0.1484
      2 C         140.5007  144.9233  163.0011 C.ar    1  UNL1        0.0796
      3 C         140.3062  145.4676  161.6170 C.ar    1  UNL1        0.2016
      4 O         139.2833  146.5361  161.3682 O.2     1  UNL1       -0.2864
      5 C         141.1347  144.9435  160.4816 C.ar    1  UNL1        0.0732
      6 C         140.9402  145.4878  159.0975 C.ar    1  UNL1        0.0020
      7 C         141.7687  144.9637  157.9622 C.ar    1  UNL1       -0.0216
      8 C         141.5742  145.5080  156.5780 C.3     1  UNL1        0.0310
      9 C         142.7916  143.8952  158.2111 C.ar    1  UNL1       -0.0011
     10 C         142.9861  143.3508  159.5952 C.ar    1  UNL1        0.0373
     11 C         142.1576  143.8750  160.7305 C.ar    1  UNL1        0.1483
     12 O         142.3521  143.3306  162.1147 O.2     1  UNL1       -0.4533
     13 C         142.1071  142.2218  167.4024 C.ar    1  UNL1        0.1387
     14 C         143.2788  142.3469  166.4742 C.ar    1  UNL1        0.0370
     15 C         143.0843  142.8912  165.0901 C.ar    1  UNL1        0.0061
     16 C         141.7181  143.3104  164.6341 C.ar    1  UNL1        0.0349
     17 C         140.5465  143.1853  165.5623 C.ar    1  UNL1        0.0061
     18 C         140.7410  142.6410  166.9464 C.ar    1  UNL1        0.0370
     19 C         143.4351  142.1728  169.6349 C.3     1  UNL1        0.2525
     20 O         142.3016  141.6774  168.7866 O.3     1  UNL1       -0.4714
@<TRIPOS>BOND
     1    19    20    1
     2    20    13    1
     3    13    14   ar
     4    14    15   ar
     5    15    16   ar
     6    16     1    1
     7     1     2   ar
     8     2     3   ar
     9     3     4    2
    10     3     5   ar
    11     5     6   ar
    12     6     7   ar
    13     7     8    1
    14     7     9   ar
    15     9    10   ar
    16    10    11   ar
    17    11    12   ar
    18    16    17   ar
    19    17    18   ar
    20    18    13   ar
    21    12     1   ar
    22    11     5   ar
@<TRIPOS>MOLECULE
*****
 20 22 0 0 0
SMALL
GASTEIGER

@<TRIPOS>ATOM
      1 C         140.0890  142.5485  164.5824 C.ar    1  UNL1        0.1484
      2 C         138.9417  143.4233  164.1721 C.ar    1  UNL1        0.0796
      3 C         138.9771  144.1372  162.8534 C.ar    1  UNL1        0.2016
      4 O         137.8298  145.0120  162.4430 O.2     1  UNL1       -0.2864
      5 C         140.1599  143.9763  161.9449 C.ar    1  UNL1        0.0732
      6 C         140.1954  144.6902  160.6262 C.ar    1  UNL1        0.0020
      7 C         141.3781  144.5292  159.7179 C.ar    1  UNL1       -0.0216
      8 C         141.4136  145.2432  158.3991 C.3     1  UNL1        0.0310
      9 C         142.5254  143.6544  160.1282 C.ar    1  UNL1       -0.0011
     10 C         142.4900  142.9406  161.4469 C.ar    1  UNL1        0.0373
     11 C         141.3072  143.1015  162.3553 C.ar    1  UNL1        0.1483
     12 O         141.2717  142.3875  163.6741 O.2     1  UNL1       -0.4533
     13 C         139.9824  140.4067  168.5386 C.ar    1  UNL1        0.1387
     14 C         139.2819  139.8201  167.3491 C.ar    1  UNL1        0.0370
     15 C         139.3174  140.5340  166.0304 C.ar    1  UNL1        0.0061
     16 C         140.0535  141.8345  165.9012 C.ar    1  UNL1        0.0349
     17 C         140.7540  142.4212  167.0907 C.ar    1  UNL1        0.0061
     18 C         140.7185  141.7073  168.4094 C.ar    1  UNL1        0.0370
     19 C         140.4862  140.3616  171.0870 C.3     1  UNL1        0.2525
     20 O         139.9469  139.6928  169.8574 O.3     1  UNL1       -0.4714
@<TRIPOS>BOND
     1    19    20    1
     2    20    13    1
     3    13    14   ar
     4    14    15   ar
     5    15    16   ar
     6    16     1    1
     7     1     2   ar
     8     2     3   ar
     9     3     4    2
    10     3     5   ar
    11     5     6   ar
    12     6     7   ar
    13     7     8    1
    14     7     9   ar
    15     9    10   ar
    16    10    11   ar
    17    11    12   ar
    18    16    17   ar
    19    17    18   ar
    20    18    13   ar
    21    12     1   ar
    22    11     5   ar
@<TRIPOS>MOLECULE
*****
 20 22 0 0 0
SMALL
GASTEIGER

@<TRIPOS>ATOM
      1 C         139.7778  142.5493  164.5840 C.ar    1  UNL1        0.1484
      2 C         139.2130  141.1602  164.5463 C.ar    1  UNL1        0.0796
      3 C         139.1555  140.3396  165.8006 C.ar    1  UNL1        0.2016
      4 O         138.5907  138.9505  165.7628 O.2     1  UNL1       -0.2864
      5 C         139.6629  140.9081  167.0927 C.ar    1  UNL1        0.0732
      6 C         139.6055  140.0875  168.3469 C.ar    1  UNL1        0.0020
      7 C         140.1129  140.6560  169.6390 C.ar    1  UNL1       -0.0216
      8 C         140.0555  139.8354  170.8933 C.3     1  UNL1        0.0310
      9 C         140.6777  142.0450  169.6767 C.ar    1  UNL1       -0.0011
     10 C         140.7352  142.8656  168.4224 C.ar    1  UNL1        0.0373
     11 C         140.2278  142.2972  167.1304 C.ar    1  UNL1        0.1483
     12 O         140.2852  143.1178  165.8760 O.2     1  UNL1       -0.4533
     13 C         139.9501  145.0109  160.8209 C.ar    1  UNL1        0.1387
     14 C         139.9144  143.5137  160.7368 C.ar    1  UNL1        0.0370
     15 C         139.8570  142.6932  161.9911 C.ar    1  UNL1        0.0061
     16 C         139.8352  143.3699  163.3296 C.ar    1  UNL1        0.0349
     17 C         139.8709  144.8671  163.4138 C.ar    1  UNL1        0.0061
     18 C         139.9284  145.6876  162.1595 C.ar    1  UNL1        0.0370
     19 C         141.0410  145.5324  158.5213 C.3     1  UNL1        0.2525
     20 O         140.0075  145.8315  159.5666 O.3     1  UNL1       -0.4714
@<TRIPOS>BOND
     1    19    20    1
     2    20    13    1
     3    13    14   ar
     4    14    15   ar
     5    15    16   ar
     6    16     1    1
     7     1     2   ar
     8     2     3   ar
     9     3     4    2
    10     3     5   ar
    11     5     6   ar
    12     6     7   ar
    13     7     8    1
    14     7     9   ar
    15     9    10   ar
    16    10    11   ar
    17    11    12   ar
    18    16    17   ar
    19    17    18   ar
    20    18    13   ar
    21    12     1   ar
    22    11     5   ar
@<TRIPOS>MOLECULE
*****
 20 22 0 0 0
SMALL
GASTEIGER

@<TRIPOS>ATOM
      1 C         142.5940  139.8357  164.6142 C.ar    1  UNL1        0.1484
      2 C         143.1541  138.9206  165.6624 C.ar    1  UNL1        0.0796
      3 C         142.9092  139.2049  167.1147 C.ar    1  UNL1        0.2016
      4 O         143.4693  138.2898  168.1630 O.2     1  UNL1       -0.2864
      5 C         142.1041  140.4043  167.5188 C.ar    1  UNL1        0.0732
      6 C         141.8592  140.6887  168.9710 C.ar    1  UNL1        0.0020
      7 C         141.0542  141.8881  169.3750 C.ar    1  UNL1       -0.0216
      8 C         140.8092  142.1724  170.8274 C.3     1  UNL1        0.0310
      9 C         140.4941  142.8032  168.3268 C.ar    1  UNL1       -0.0011
     10 C         140.7390  142.5189  166.8745 C.ar    1  UNL1        0.0373
     11 C         141.5440  141.3195  166.4705 C.ar    1  UNL1        0.1483
     12 O         141.7890  141.0351  165.0182 O.2     1  UNL1       -0.4533
     13 C         143.3289  138.9825  160.2573 C.ar    1  UNL1        0.1387
     14 C         142.9095  137.8751  161.1780 C.ar    1  UNL1        0.0370
     15 C         142.6646  138.1595  162.6303 C.ar    1  UNL1        0.0061
     16 C         142.8390  139.5513  163.1618 C.ar    1  UNL1        0.0349
     17 C         143.2584  140.6587  162.2411 C.ar    1  UNL1        0.0061
     18 C         143.5033  140.3743  160.7889 C.ar    1  UNL1        0.0370
     19 C         142.6246  137.8227  158.0417 C.3     1  UNL1        0.2525
     20 O         143.5738  138.6982  158.8050 O.3     1  UNL1       -0.4714
@<TRIPOS>BOND
     1    19    20    1
     2    20    13    1
     3    13    14   ar
     4    14    15   ar
     5    15    16   ar
     6    16     1    1
     7     1     2   ar
     8     2     3   ar
     9     3     4    2
    10     3     5   ar
    11     5     6   ar
    12     6     7   ar
    13     7     8    1
    14     7     9   ar
    15     9    10   ar
    16    10    11   ar
    17    11    12   ar
    18    16    17   ar
    19    17    18   ar
    20    18    13   ar
    21    12     1   ar
    22    11     5   ar
@<TRIPOS>MOLECULE
*****
 20 22 0 0 0
SMALL
GASTEIGER

@<TRIPOS>ATOM
      1 C         140.7735  140.9841  167.3884 C.ar    1  UNL1        0.1484
      2 C         139.6642  140.0691  167.8152 C.ar    1  UNL1        0.0796
      3 C         138.9235  139.2603  166.7919 C.ar    1  UNL1        0.2016
      4 O         137.8142  138.3453  167.2187 O.2     1  UNL1       -0.2864
      5 C         139.2922  139.3664  165.3417 C.ar    1  UNL1        0.0732
      6 C         138.5515  138.5576  164.3184 C.ar    1  UNL1        0.0020
      7 C         138.9202  138.6638  162.8684 C.ar    1  UNL1       -0.0216
      8 C         138.1795  137.8549  161.8450 C.3     1  UNL1        0.0310
      9 C         140.0296  139.5787  162.4416 C.ar    1  UNL1       -0.0011
     10 C         140.7703  140.3876  163.4649 C.ar    1  UNL1        0.0373
     11 C         140.4016  140.2814  164.9150 C.ar    1  UNL1        0.1483
     12 O         141.1422  141.0903  165.9383 O.2     1  UNL1       -0.4533
     13 C         142.9954  143.4106  170.4585 C.ar    1  UNL1        0.1387
     14 C         141.5324  143.6492  170.2295 C.ar    1  UNL1        0.0370
     15 C         140.7918  142.8404  169.2061 C.ar    1  UNL1        0.0061
     16 C         141.5142  141.7929  168.4118 C.ar    1  UNL1        0.0349
     17 C         142.9773  141.5544  168.6408 C.ar    1  UNL1        0.0061
     18 C         143.7179  142.3632  169.6641 C.ar    1  UNL1        0.0370
     19 C         145.1794  144.5648  171.2636 C.3     1  UNL1        0.2525
     20 O         143.7361  144.2194  171.4819 O.3     1  UNL1       -0.4714
@<TRIPOS>BOND
     1    19    20    1
     2    20    13    1
     3    13    14   ar
     4    14    15   ar
     5    15    16   ar
     6    16     1    1
     7     1     2   ar
     8     2     3   ar
     9     3     4    2
    10     3     5   ar
    11     5     6   ar
    12     6     7   ar
    13     7     8    1
    14     7     9   ar
    15     9    10   ar
    16    10    11   ar
    17    11    12   ar
    18    16    17   ar
    19    17    18   ar
    20    18    13   ar
    21    12     1   ar
    22    11     5   ar
@<TRIPOS>MOLECULE
*****
 20 22 0 0 0
SMALL
GASTEIGER

@<TRIPOS>ATOM
      1 C         139.5372  140.5302  165.0995 C.ar    1  UNL1        0.1484
      2 C         138.3799  141.1157  164.3459 C.ar    1  UNL1        0.0796
      3 C         138.2141  140.8269  162.8834 C.ar    1  UNL1        0.2016
      4 O         137.0568  141.4124  162.1298 O.2     1  UNL1       -0.2864
      5 C         139.2056  139.9527  162.1744 C.ar    1  UNL1        0.0732
      6 C         139.0398  139.6639  160.7118 C.ar    1  UNL1        0.0020
      7 C         140.0313  138.7897  160.0029 C.ar    1  UNL1       -0.0216
      8 C         139.8656  138.5009  158.5402 C.3     1  UNL1        0.0310
      9 C         141.1886  138.2042  160.7565 C.ar    1  UNL1       -0.0011
     10 C         141.3544  138.4930  162.2190 C.ar    1  UNL1        0.0373
     11 C         140.3629  139.3672  162.9280 C.ar    1  UNL1        0.1483
     12 O         140.5286  139.6559  164.3906 O.2     1  UNL1       -0.4533
     13 C         140.0344  141.3964  169.4873 C.ar    1  UNL1        0.1387
     14 C         139.3977  140.1127  169.0437 C.ar    1  UNL1        0.0370
     15 C         139.2320  139.8240  167.5811 C.ar    1  UNL1        0.0061
     16 C         139.7029  140.8189  166.5622 C.ar    1  UNL1        0.0349
     17 C         140.3396  142.1026  167.0058 C.ar    1  UNL1        0.0061
     18 C         140.5053  142.3913  168.4683 C.ar    1  UNL1        0.0370
     19 C         141.5721  141.8724  171.5266 C.3     1  UNL1        0.2525
     20 O         140.2001  141.6851  170.9499 O.3     1  UNL1       -0.4714
@<TRIPOS>BOND
     1    19    20    1
     2    20    13    1
     3    13    14   ar
     4    14    15   ar
     5    15    16   ar
     6    16     1    1
     7     1     2   ar
     8     2     3   ar
     9     3     4    2
    10     3     5   ar
    11     5     6   ar
    12     6     7   ar
    13     7     8    1
    14     7     9   ar
    15     9    10   ar
    16    10    11   ar
    17    11    12   ar
    18    16    17   ar
    19    17    18   ar
    20    18    13   ar
    21    12     1   ar
    22    11     5   ar
