@<TRIPOS>MOLECULE
*****
 36 39 0 0 0
SMALL
GASTEIGER

@<TRIPOS>ATOM
      1 C         136.1214  140.6928  155.8604 C.ar    1  UNL1        0.0523
      2 C         136.8896  141.5474  156.8244 C.ar    1  UNL1        0.0167
      3 C         138.3742  141.3785  156.9580 C.ar    1  UNL1        0.0505
      4 C         139.0902  140.3550  156.1275 C.ar    1  UNL1        0.0170
      5 C         138.3219  139.5004  155.1635 C.ar    1  UNL1        0.0307
      6 C         136.8374  139.6693  155.0300 C.ar    1  UNL1        0.1401
      7 F         136.0690  138.8147  154.0660 F       1  UNL1       -0.2044
      8 C         135.1005  141.7255  154.5915 C.3     1  UNL1        0.0602
      9 C         134.6368  140.8616  155.7268 C.3     1  UNL1        0.2179
     10 C         133.3134  141.3305  155.1989 C.3     1  UNL1        0.1808
     11 N         132.0418  140.8769  155.8526 N.ar    1  UNL1       -0.2384
     12 N         130.6009  141.1704  155.5566 N.ar    1  UNL1       -0.1584
     13 C         129.7623  140.4293  156.5553 C.ar    1  UNL1        0.1704
     14 C         130.6849  139.6778  157.4686 C.ar    1  UNL1        0.0576
     15 C         132.0938  139.9544  157.0343 C.ar    1  UNL1        0.1615
     16 C         133.4172  139.4856  157.5622 C.2     1  UNL1        0.3305
     17 N         133.4691  138.5631  158.7439 N.pl3   1  UNL1       -0.2452
     18 N         134.6887  139.9392  156.9084 N.2     1  UNL1       -0.0666
     19 H         132.6346  138.2654  159.1730 H       1  UNL1        0.2885
     20 H         134.3377  138.2554  159.0903 H       1  UNL1        0.2885
     21 C         128.2641  140.4381  156.6280 C.1     1  UNL1        0.1216
     22 N         126.7659  140.4469  156.7007 N.1     1  UNL1       -0.1892
     23 N         139.1424  142.2332  157.9219 N.am    1  UNL1       -0.2791
     24 C         139.0663  141.9573  159.3944 C.2     1  UNL1        0.2672
     25 O         138.2218  140.8267  159.9029 O.2     1  UNL1       -0.2682
     26 H         139.6967  142.9752  157.5882 H       1  UNL1        0.1552
     27 C         139.8346  142.8120  160.3584 C.ar    1  UNL1        0.1350
     28 C         140.7970  142.1793  161.3192 C.ar    1  UNL1        0.0269
     29 C         141.5653  143.0340  162.2832 C.ar    1  UNL1        0.0404
     30 C         141.3711  144.5214  162.2862 C.ar    1  UNL1        0.1634
     31 C         140.4087  145.1540  161.3253 C.ar    1  UNL1        0.1359
     32 N         139.6404  144.2994  160.3613 N.ar    1  UNL1       -0.2361
     33 O         142.1395  145.3761  163.2502 O.3     1  UNL1       -0.4220
     34 C         143.5876  145.0898  163.5169 C.3     1  UNL1        0.5087
     35 F         144.4560  144.5365  162.4261 F       1  UNL1       -0.1550
     36 F         144.1672  145.3566  164.8744 F       1  UNL1       -0.1550
@<TRIPOS>BOND
     1     9     8    1
     2     9     1    1
     3     1     2   ar
     4     2     3   ar
     5     3    23    1
     6    23    24   am
     7    24    25    2
     8    24    27    1
     9    27    28   ar
    10    28    29   ar
    11    29    30   ar
    12    30    33    1
    13    33    34    1
    14    34    35    1
    15    34    36    1
    16    30    31   ar
    17    31    32   ar
    18     3     4   ar
    19     4     5   ar
    20     5     6   ar
    21     6     7    1
    22     9    10    1
    23    10    11    1
    24    11    12   ar
    25    12    13   ar
    26    13    21    1
    27    21    22    3
    28    13    14   ar
    29    14    15   ar
    30    15    16    1
    31    16    17    1
    32    16    18    2
    33    18     9    1
    34     6     1   ar
    35    15    11   ar
    36    32    27   ar
    37    23    26    1
    38    17    19    1
    39    17    20    1
@<TRIPOS>MOLECULE
*****
 36 39 0 0 0
SMALL
GASTEIGER

@<TRIPOS>ATOM
      1 C         140.5410  139.0957  163.0180 C.ar    1  UNL1        0.0523
      2 C         141.3871  139.7477  161.9650 C.ar    1  UNL1        0.0167
      3 C         141.0543  139.5617  160.5142 C.ar    1  UNL1        0.0505
      4 C         139.8754  138.7238  160.1166 C.ar    1  UNL1        0.0170
      5 C         139.0293  138.0718  161.1697 C.ar    1  UNL1        0.0307
      6 C         139.3621  138.2578  162.6204 C.ar    1  UNL1        0.1401
      7 F         138.5160  137.6058  163.6736 F       1  UNL1       -0.2044
      8 C         141.5746  137.9818  164.2054 C.3     1  UNL1        0.0602
      9 C         140.8737  139.2816  164.4689 C.3     1  UNL1        0.2179
     10 C         141.4499  139.0161  165.8281 C.3     1  UNL1        0.1808
     11 N         141.2097  139.9858  166.9470 N.ar    1  UNL1       -0.2384
     12 N         141.6464  139.9907  168.3820 N.ar    1  UNL1       -0.1584
     13 C         141.0999  141.2290  169.0286 C.ar    1  UNL1        0.1704
     14 C         140.3254  141.9893  167.9932 C.ar    1  UNL1        0.0576
     15 C         140.3932  141.2210  166.7067 C.ar    1  UNL1        0.1615
     16 C         139.8171  141.4865  165.3474 C.2     1  UNL1        0.3305
     17 N         139.0006  142.7216  165.1071 N.pl3   1  UNL1       -0.2452
     18 N         140.0573  140.5168  164.2286 N.2     1  UNL1       -0.0666
     19 H         138.8429  143.3581  165.8415 H       1  UNL1        0.2885
     20 H         138.6225  142.8959  164.2150 H       1  UNL1        0.2885
     21 C         141.2938  141.6355  170.4593 C.1     1  UNL1        0.1216
     22 N         141.4877  142.0421  171.8901 N.1     1  UNL1       -0.1892
     23 N         141.9004  140.2137  159.4611 N.am    1  UNL1       -0.2791
     24 C         143.2413  139.6381  159.1137 C.2     1  UNL1        0.2672
     25 O         143.7361  138.4104  159.8193 O.2     1  UNL1       -0.2682
     26 H         141.5757  141.0195  158.9980 H       1  UNL1        0.1552
     27 C         144.0874  140.2901  158.0606 C.ar    1  UNL1        0.1350
     28 C         144.5780  141.6940  158.2558 C.ar    1  UNL1        0.0269
     29 C         145.4241  142.3461  157.2027 C.ar    1  UNL1        0.0404
     30 C         145.7796  141.5941  155.9545 C.ar    1  UNL1        0.1634
     31 C         145.2890  140.1901  155.7593 C.ar    1  UNL1        0.1359
     32 N         144.4429  139.5381  156.8123 N.ar    1  UNL1       -0.2361
     33 O         146.6257  142.2461  154.9014 O.3     1  UNL1       -0.4220
     34 C         148.1168  142.2910  155.0589 C.3     1  UNL1        0.5087
     35 F         148.9901  142.5369  153.8644 F       1  UNL1       -0.1550
     36 F         148.7345  142.0901  156.4109 F       1  UNL1       -0.1550
@<TRIPOS>BOND
     1     9     8    1
     2     9     1    1
     3     1     2   ar
     4     2     3   ar
     5     3    23    1
     6    23    24   am
     7    24    25    2
     8    24    27    1
     9    27    28   ar
    10    28    29   ar
    11    29    30   ar
    12    30    33    1
    13    33    34    1
    14    34    35    1
    15    34    36    1
    16    30    31   ar
    17    31    32   ar
    18     3     4   ar
    19     4     5   ar
    20     5     6   ar
    21     6     7    1
    22     9    10    1
    23    10    11    1
    24    11    12   ar
    25    12    13   ar
    26    13    21    1
    27    21    22    3
    28    13    14   ar
    29    14    15   ar
    30    15    16    1
    31    16    17    1
    32    16    18    2
    33    18     9    1
    34     6     1   ar
    35    15    11   ar
    36    32    27   ar
    37    23    26    1
    38    17    19    1
    39    17    20    1
@<TRIPOS>MOLECULE
*****
 36 39 0 0 0
SMALL
GASTEIGER

@<TRIPOS>ATOM
      1 C         143.4889  141.0430  162.5815 C.ar    1  UNL1        0.0523
      2 C         143.4800  139.9426  161.5622 C.ar    1  UNL1        0.0167
      3 C         143.7861  140.2482  160.1258 C.ar    1  UNL1        0.0505
      4 C         144.1010  141.6543  159.7090 C.ar    1  UNL1        0.0170
      5 C         144.1099  142.7547  160.7283 C.ar    1  UNL1        0.0307
      6 C         143.8038  142.4490  162.1646 C.ar    1  UNL1        0.1401
      7 F         143.8126  143.5494  163.1840 F       1  UNL1       -0.2044
      8 C         144.6462  140.4091  163.9878 C.3     1  UNL1        0.0602
      9 C         143.1828  140.7373  164.0178 C.3     1  UNL1        0.2179
     10 C         143.3850  140.3177  165.4437 C.3     1  UNL1        0.1808
     11 N         142.2301  140.3324  166.4008 N.ar    1  UNL1       -0.2384
     12 N         142.1264  139.9759  167.8541 N.ar    1  UNL1       -0.1584
     13 C         140.7052  140.1899  168.2835 C.ar    1  UNL1        0.1704
     14 C         139.9306  140.6787  167.0956 C.ar    1  UNL1        0.0576
     15 C         140.8731  140.7668  165.9320 C.ar    1  UNL1        0.1615
     16 C         140.6709  141.1864  164.5061 C.2     1  UNL1        0.3305
     17 N         139.3138  141.6207  164.0373 N.pl3   1  UNL1       -0.2452
     18 N         141.8258  141.1716  163.5491 N.2     1  UNL1       -0.0666
     19 H         138.5558  141.6304  164.6655 H       1  UNL1        0.2885
     20 H         139.1812  141.8961  163.1015 H       1  UNL1        0.2885
     21 C         140.1551  139.9561  169.6593 C.1     1  UNL1        0.1216
     22 N         139.6050  139.7224  171.0351 N.1     1  UNL1       -0.1892
     23 N         143.7773  139.1478  159.1066 N.am    1  UNL1       -0.2791
     24 C         142.6159  139.0040  158.1681 C.2     1  UNL1        0.2672
     25 O         141.4634  139.9606  158.2490 O.2     1  UNL1       -0.2682
     26 H         144.5337  138.5199  159.0535 H       1  UNL1        0.1552
     27 C         142.6071  137.9035  157.1488 C.ar    1  UNL1        0.1350
     28 C         141.3302  137.1815  156.8357 C.ar    1  UNL1        0.0269
     29 C         141.3214  136.0811  155.8164 C.ar    1  UNL1        0.0404
     30 C         142.5895  135.7026  155.1103 C.ar    1  UNL1        0.1634
     31 C         143.8665  136.4247  155.4235 C.ar    1  UNL1        0.1359
     32 N         143.8753  137.5251  156.4427 N.ar    1  UNL1       -0.2361
     33 O         142.5807  134.6022  154.0910 O.3     1  UNL1       -0.4220
     34 C         142.4555  133.1736  154.5308 C.3     1  UNL1        0.5087
     35 F         143.5113  132.1773  154.1532 F       1  UNL1       -0.1550
     36 F         141.2744  132.7412  155.3482 F       1  UNL1       -0.1550
@<TRIPOS>BOND
     1     9     8    1
     2     9     1    1
     3     1     2   ar
     4     2     3   ar
     5     3    23    1
     6    23    24   am
     7    24    25    2
     8    24    27    1
     9    27    28   ar
    10    28    29   ar
    11    29    30   ar
    12    30    33    1
    13    33    34    1
    14    34    35    1
    15    34    36    1
    16    30    31   ar
    17    31    32   ar
    18     3     4   ar
    19     4     5   ar
    20     5     6   ar
    21     6     7    1
    22     9    10    1
    23    10    11    1
    24    11    12   ar
    25    12    13   ar
    26    13    21    1
    27    21    22    3
    28    13    14   ar
    29    14    15   ar
    30    15    16    1
    31    16    17    1
    32    16    18    2
    33    18     9    1
    34     6     1   ar
    35    15    11   ar
    36    32    27   ar
    37    23    26    1
    38    17    19    1
    39    17    20    1
@<TRIPOS>MOLECULE
*****
 36 39 0 0 0
SMALL
GASTEIGER

@<TRIPOS>ATOM
      1 C         139.5034  139.7763  162.8005 C.ar    1  UNL1        0.0523
      2 C         139.8674  140.8323  161.7994 C.ar    1  UNL1        0.0167
      3 C         139.8476  140.5148  160.3335 C.ar    1  UNL1        0.0505
      4 C         139.4637  139.1412  159.8688 C.ar    1  UNL1        0.0170
      5 C         139.0997  138.0852  160.8700 C.ar    1  UNL1        0.0307
      6 C         139.1196  138.4028  162.3358 C.ar    1  UNL1        0.1401
      7 F         138.7555  137.3467  163.3370 F       1  UNL1       -0.2044
      8 C         138.1192  140.5013  163.9306 C.3     1  UNL1        0.0602
      9 C         139.5233  140.0938  164.2664 C.3     1  UNL1        0.2179
     10 C         139.0554  140.5529  165.6157 C.3     1  UNL1        0.1808
     11 N         139.9848  140.4941  166.7916 N.ar    1  UNL1       -0.2384
     12 N         139.8065  140.8739  168.2318 N.ar    1  UNL1       -0.1584
     13 C         141.0934  140.5908  168.9485 C.ar    1  UNL1        0.1704
     14 C         142.0670  140.0361  167.9514 C.ar    1  UNL1        0.0576
     15 C         141.3819  139.9763  166.6183 C.ar    1  UNL1        0.1615
     16 C         141.8496  139.5173  165.2691 C.2     1  UNL1        0.3305
     17 N         143.2467  138.9995  165.0958 N.pl3   1  UNL1       -0.2452
     18 N         140.9203  139.5760  164.0932 N.2     1  UNL1       -0.0666
     19 H         143.8567  138.9609  165.8676 H       1  UNL1        0.2885
     20 H         143.5537  138.6982  164.2102 H       1  UNL1        0.2885
     21 C         141.3599  140.8219  170.4064 C.1     1  UNL1        0.1216
     22 N         141.6264  141.0530  171.8644 N.1     1  UNL1       -0.1892
     23 N         140.2116  141.5708  159.3324 N.am    1  UNL1       -0.2791
     24 C         139.3123  142.7542  159.1298 C.2     1  UNL1        0.2672
     25 O         138.0490  142.8815  159.9284 O.2     1  UNL1       -0.2682
     26 H         141.0408  141.4873  158.8082 H       1  UNL1        0.1552
     27 C         139.6764  143.8102  158.1287 C.ar    1  UNL1        0.1350
     28 C         139.0685  143.7853  156.7577 C.ar    1  UNL1        0.0269
     29 C         139.4326  144.8413  155.7565 C.ar    1  UNL1        0.0404
     30 C         140.4045  145.9223  156.1265 C.ar    1  UNL1        0.1634
     31 C         141.0124  145.9471  157.4976 C.ar    1  UNL1        0.1359
     32 N         140.6484  144.8911  158.4987 N.ar    1  UNL1       -0.2361
     33 O         140.7686  146.9783  155.1253 O.3     1  UNL1       -0.4220
     34 C         139.7092  147.8853  154.5731 C.3     1  UNL1        0.5087
     35 F         138.5069  148.2265  155.4027 F       1  UNL1       -0.1550
     36 F         139.8519  148.4510  153.1912 F       1  UNL1       -0.1550
@<TRIPOS>BOND
     1     9     8    1
     2     9     1    1
     3     1     2   ar
     4     2     3   ar
     5     3    23    1
     6    23    24   am
     7    24    25    2
     8    24    27    1
     9    27    28   ar
    10    28    29   ar
    11    29    30   ar
    12    30    33    1
    13    33    34    1
    14    34    35    1
    15    34    36    1
    16    30    31   ar
    17    31    32   ar
    18     3     4   ar
    19     4     5   ar
    20     5     6   ar
    21     6     7    1
    22     9    10    1
    23    10    11    1
    24    11    12   ar
    25    12    13   ar
    26    13    21    1
    27    21    22    3
    28    13    14   ar
    29    14    15   ar
    30    15    16    1
    31    16    17    1
    32    16    18    2
    33    18     9    1
    34     6     1   ar
    35    15    11   ar
    36    32    27   ar
    37    23    26    1
    38    17    19    1
    39    17    20    1
@<TRIPOS>MOLECULE
*****
 36 39 0 0 0
SMALL
GASTEIGER

@<TRIPOS>ATOM
      1 C         139.2953  139.7992  160.0864 C.ar    1  UNL1        0.0523
      2 C         139.6751  138.5377  159.3693 C.ar    1  UNL1        0.0167
      3 C         140.0280  138.5805  157.9120 C.ar    1  UNL1        0.0505
      4 C         140.0011  139.8850  157.1719 C.ar    1  UNL1        0.0170
      5 C         139.6214  141.1465  157.8891 C.ar    1  UNL1        0.0307
      6 C         139.2684  141.1035  159.3463 C.ar    1  UNL1        0.1401
      7 F         138.8886  142.3651  160.0635 F       1  UNL1       -0.2044
      8 C         137.5890  139.5212  160.9409 C.3     1  UNL1        0.0602
      9 C         138.9424  139.7563  161.5437 C.3     1  UNL1        0.2179
     10 C         138.1193  139.6318  162.7916 C.3     1  UNL1        0.1808
     11 N         138.7723  139.7573  164.1362 N.ar    1  UNL1       -0.2384
     12 N         138.2228  139.6805  165.5298 N.ar    1  UNL1       -0.1584
     13 C         139.3591  139.8831  166.4878 C.ar    1  UNL1        0.1704
     14 C         140.6108  140.0850  165.6863 C.ar    1  UNL1        0.0576
     15 C         140.2481  140.0072  164.2329 C.ar    1  UNL1        0.1615
     16 C         141.0711  140.1317  162.9850 C.2     1  UNL1        0.3305
     17 N         142.5469  140.3817  163.0817 N.pl3   1  UNL1       -0.2452
     18 N         140.4181  140.0062  161.6404 N.2     1  UNL1       -0.0666
     19 H         142.9755  140.4640  163.9642 H       1  UNL1        0.2885
     20 H         143.0871  140.4634  162.2626 H       1  UNL1        0.2885
     21 C         139.2609  139.8836  167.9846 C.1     1  UNL1        0.1216
     22 N         139.1628  139.8842  169.4814 N.1     1  UNL1       -0.1892
     23 N         140.4078  137.3190  157.1949 N.am    1  UNL1       -0.2791
     24 C         141.8527  136.9407  157.0566 C.2     1  UNL1        0.2672
     25 O         142.9179  137.8240  157.6354 O.2     1  UNL1       -0.2682
     26 H         139.7087  136.7392  156.8149 H       1  UNL1        0.1552
     27 C         142.2325  135.6791  156.3395 C.ar    1  UNL1        0.1350
     28 C         143.4458  134.9088  156.7685 C.ar    1  UNL1        0.0269
     29 C         143.8256  133.6472  156.0514 C.ar    1  UNL1        0.0404
     30 C         142.9919  133.1560  154.9052 C.ar    1  UNL1        0.1634
     31 C         141.7784  133.9264  154.4763 C.ar    1  UNL1        0.1359
     32 N         141.3987  135.1880  155.1933 N.ar    1  UNL1       -0.2361
     33 O         143.3716  131.8944  154.1881 O.3     1  UNL1       -0.4220
     34 C         143.7909  130.6847  154.9696 C.3     1  UNL1        0.5087
     35 F         145.2380  130.4707  155.3015 F       1  UNL1       -0.1550
     36 F         142.7631  129.6890  155.4193 F       1  UNL1       -0.1550
@<TRIPOS>BOND
     1     9     8    1
     2     9     1    1
     3     1     2   ar
     4     2     3   ar
     5     3    23    1
     6    23    24   am
     7    24    25    2
     8    24    27    1
     9    27    28   ar
    10    28    29   ar
    11    29    30   ar
    12    30    33    1
    13    33    34    1
    14    34    35    1
    15    34    36    1
    16    30    31   ar
    17    31    32   ar
    18     3     4   ar
    19     4     5   ar
    20     5     6   ar
    21     6     7    1
    22     9    10    1
    23    10    11    1
    24    11    12   ar
    25    12    13   ar
    26    13    21    1
    27    21    22    3
    28    13    14   ar
    29    14    15   ar
    30    15    16    1
    31    16    17    1
    32    16    18    2
    33    18     9    1
    34     6     1   ar
    35    15    11   ar
    36    32    27   ar
    37    23    26    1
    38    17    19    1
    39    17    20    1
@<TRIPOS>MOLECULE
*****
 36 39 0 0 0
SMALL
GASTEIGER

@<TRIPOS>ATOM
      1 C         142.3559  142.7725  162.4176 C.ar    1  UNL1        0.0523
      2 C         142.3681  141.5419  161.5601 C.ar    1  UNL1        0.0167
      3 C         142.1343  141.6550  160.0827 C.ar    1  UNL1        0.0505
      4 C         141.8885  142.9987  159.4630 C.ar    1  UNL1        0.0170
      5 C         141.8763  144.2293  160.3206 C.ar    1  UNL1        0.0307
      6 C         142.1100  144.1161  161.7980 C.ar    1  UNL1        0.1401
      7 F         142.0979  145.3467  162.6556 F       1  UNL1       -0.2044
      8 C         144.0082  142.6861  163.4082 C.3     1  UNL1        0.0602
      9 C         142.5896  142.6594  163.8951 C.3     1  UNL1        0.2179
     10 C         143.3161  142.5556  165.2034 C.3     1  UNL1        0.1808
     11 N         142.5428  142.4644  166.4854 N.ar    1  UNL1       -0.2384
     12 N         142.9805  142.3535  167.9158 N.ar    1  UNL1       -0.1584
     13 C         141.7513  142.2975  168.7736 C.ar    1  UNL1        0.1704
     14 C         140.5539  142.3738  167.8734 C.ar    1  UNL1        0.0576
     15 C         141.0430  142.4770  166.4592 C.ar    1  UNL1        0.1615
     16 C         140.3167  142.5808  165.1509 C.2     1  UNL1        0.3305
     17 N         138.8169  142.5934  165.1247 N.pl3   1  UNL1       -0.2452
     18 N         141.0900  142.6720  163.8689 N.2     1  UNL1       -0.0666
     19 H         138.3094  142.5336  165.9661 H       1  UNL1        0.2885
     20 H         138.3402  142.6615  164.2660 H       1  UNL1        0.2885
     21 C         141.7242  142.1849  170.2691 C.1     1  UNL1        0.1216
     22 N         141.6971  142.0723  171.7647 N.1     1  UNL1       -0.1892
     23 N         142.1465  140.4244  159.2251 N.am    1  UNL1       -0.2791
     24 C         143.3297  140.1309  158.3511 C.2     1  UNL1        0.2672
     25 O         144.5009  141.0680  158.3348 O.2     1  UNL1       -0.2682
     26 H         141.3778  139.8094  159.2358 H       1  UNL1        0.1552
     27 C         143.3419  138.9002  157.4936 C.ar    1  UNL1        0.1350
     28 C         142.5471  137.6949  157.9003 C.ar    1  UNL1        0.0269
     29 C         142.5593  136.4643  157.0427 C.ar    1  UNL1        0.0404
     30 C         143.3661  136.4390  155.7784 C.ar    1  UNL1        0.1634
     31 C         144.1608  137.6445  155.3718 C.ar    1  UNL1        0.1359
     32 N         144.1488  138.8751  156.2293 N.ar    1  UNL1       -0.2361
     33 O         143.3782  135.2084  154.9209 O.3     1  UNL1       -0.4220
     34 C         143.2326  133.8545  155.5499 C.3     1  UNL1        0.5087
     35 F         141.8818  133.3736  155.9907 F       1  UNL1       -0.1550
     36 F         144.4376  132.9814  155.7383 F       1  UNL1       -0.1550
@<TRIPOS>BOND
     1     9     8    1
     2     9     1    1
     3     1     2   ar
     4     2     3   ar
     5     3    23    1
     6    23    24   am
     7    24    25    2
     8    24    27    1
     9    27    28   ar
    10    28    29   ar
    11    29    30   ar
    12    30    33    1
    13    33    34    1
    14    34    35    1
    15    34    36    1
    16    30    31   ar
    17    31    32   ar
    18     3     4   ar
    19     4     5   ar
    20     5     6   ar
    21     6     7    1
    22     9    10    1
    23    10    11    1
    24    11    12   ar
    25    12    13   ar
    26    13    21    1
    27    21    22    3
    28    13    14   ar
    29    14    15   ar
    30    15    16    1
    31    16    17    1
    32    16    18    2
    33    18     9    1
    34     6     1   ar
    35    15    11   ar
    36    32    27   ar
    37    23    26    1
    38    17    19    1
    39    17    20    1
@<TRIPOS>MOLECULE
*****
 36 39 0 0 0
SMALL
GASTEIGER

@<TRIPOS>ATOM
      1 C         140.2241  141.0576  158.9807 C.ar    1  UNL1        0.0523
      2 C         140.1921  141.1518  160.4774 C.ar    1  UNL1        0.0167
      3 C         140.6066  139.9762  161.3119 C.ar    1  UNL1        0.0505
      4 C         141.0530  138.7065  160.6497 C.ar    1  UNL1        0.0170
      5 C         141.0850  138.6124  159.1529 C.ar    1  UNL1        0.0307
      6 C         140.6706  139.7880  158.3185 C.ar    1  UNL1        0.1401
      7 F         140.7026  139.6938  156.8218 F       1  UNL1       -0.2044
      8 C         138.5111  141.4845  158.2047 C.3     1  UNL1        0.0602
      9 C         139.8097  142.2331  158.1462 C.3     1  UNL1        0.2179
     10 C         138.9441  143.1486  157.3320 C.3     1  UNL1        0.1808
     11 N         139.5212  144.4045  156.7491 N.ar    1  UNL1       -0.2384
     12 N         138.9170  145.4916  155.9105 N.ar    1  UNL1       -0.1584
     13 C         139.9861  146.5039  155.6236 C.ar    1  UNL1        0.1704
     14 C         141.2509  146.0425  156.2848 C.ar    1  UNL1        0.0576
     15 C         140.9636  144.7450  156.9805 C.ar    1  UNL1        0.1615
     16 C         141.8290  143.8295  157.7946 C.2     1  UNL1        0.3305
     17 N         143.2715  144.1699  158.0260 N.pl3   1  UNL1       -0.2452
     18 N         141.2520  142.5736  158.3775 N.2     1  UNL1       -0.0666
     19 H         143.6502  144.9942  157.6434 H       1  UNL1        0.2885
     20 H         143.8395  143.5690  158.5604 H       1  UNL1        0.2885
     21 C         139.8196  147.7576  154.8170 C.1     1  UNL1        0.1216
     22 N         139.6531  149.0112  154.0104 N.1     1  UNL1       -0.1892
     23 N         140.5745  140.0704  162.8086 N.am    1  UNL1       -0.2791
     24 C         139.3636  139.6083  163.5635 C.2     1  UNL1        0.2672
     25 O         138.1845  139.0518  162.8217 O.2     1  UNL1       -0.2682
     26 H         141.3484  140.4356  163.2955 H       1  UNL1        0.1552
     27 C         139.3316  139.7025  165.0603 C.ar    1  UNL1        0.1350
     28 C         138.2473  139.0110  165.8322 C.ar    1  UNL1        0.0269
     29 C         138.2153  139.1053  167.3289 C.ar    1  UNL1        0.0404
     30 C         139.2677  139.8910  168.0536 C.ar    1  UNL1        0.1634
     31 C         140.3520  140.5825  167.2815 C.ar    1  UNL1        0.1359
     32 N         140.3840  140.4882  165.7849 N.ar    1  UNL1       -0.2361
     33 O         139.2357  139.9852  169.5503 O.3     1  UNL1       -0.4220
     34 C         140.5133  139.9184  170.3334 C.3     1  UNL1        0.5087
     35 F         141.6224  139.0142  169.8835 F       1  UNL1       -0.1550
     36 F         140.6819  140.7558  171.5664 F       1  UNL1       -0.1550
@<TRIPOS>BOND
     1     9     8    1
     2     9     1    1
     3     1     2   ar
     4     2     3   ar
     5     3    23    1
     6    23    24   am
     7    24    25    2
     8    24    27    1
     9    27    28   ar
    10    28    29   ar
    11    29    30   ar
    12    30    33    1
    13    33    34    1
    14    34    35    1
    15    34    36    1
    16    30    31   ar
    17    31    32   ar
    18     3     4   ar
    19     4     5   ar
    20     5     6   ar
    21     6     7    1
    22     9    10    1
    23    10    11    1
    24    11    12   ar
    25    12    13   ar
    26    13    21    1
    27    21    22    3
    28    13    14   ar
    29    14    15   ar
    30    15    16    1
    31    16    17    1
    32    16    18    2
    33    18     9    1
    34     6     1   ar
    35    15    11   ar
    36    32    27   ar
    37    23    26    1
    38    17    19    1
    39    17    20    1
@<TRIPOS>MOLECULE
*****
 36 39 0 0 0
SMALL
GASTEIGER

@<TRIPOS>ATOM
      1 C         142.5351  141.0783  161.9580 C.ar    1  UNL1        0.0523
      2 C         142.5087  139.8439  161.1063 C.ar    1  UNL1        0.0167
      3 C         143.2689  139.8082  159.8136 C.ar    1  UNL1        0.0505
      4 C         144.0554  141.0070  159.3728 C.ar    1  UNL1        0.0170
      5 C         144.0818  142.2414  160.2246 C.ar    1  UNL1        0.0307
      6 C         143.3216  142.2770  161.5172 C.ar    1  UNL1        0.1401
      7 F         143.3479  143.5114  162.3690 F       1  UNL1       -0.2044
      8 C         140.8886  141.9780  162.4033 C.3     1  UNL1        0.0602
      9 C         141.7750  141.1139  163.2507 C.3     1  UNL1        0.2179
     10 C         140.7069  141.4497  164.2490 C.3     1  UNL1        0.1808
     11 N         140.7893  140.9091  165.6458 N.ar    1  UNL1       -0.2384
     12 N         139.8926  141.0674  166.8378 N.ar    1  UNL1       -0.1584
     13 C         140.4887  140.2888  167.9729 C.ar    1  UNL1        0.1704
     14 C         141.7539  139.6493  167.4824 C.ar    1  UNL1        0.0576
     15 C         141.9396  140.0327  166.0442 C.ar    1  UNL1        0.1615
     16 C         143.0076  139.6969  165.0458 C.2     1  UNL1        0.3305
     17 N         144.1579  138.8205  165.4442 N.pl3   1  UNL1       -0.2452
     18 N         142.9252  140.2376  163.6491 N.2     1  UNL1       -0.0666
     19 H         144.2119  138.4657  166.3609 H       1  UNL1        0.2885
     20 H         144.8588  138.6002  164.7889 H       1  UNL1        0.2885
     21 C         139.9197  140.1705  169.3557 C.1     1  UNL1        0.1216
     22 N         139.3507  140.0522  170.7385 N.1     1  UNL1       -0.1892
     23 N         143.2425  138.5738  158.9618 N.am    1  UNL1       -0.2791
     24 C         142.0694  138.3053  158.0664 C.2     1  UNL1        0.2672
     25 O         140.9227  139.2712  158.0227 O.2     1  UNL1       -0.2682
     26 H         143.9952  137.9398  158.9905 H       1  UNL1        0.1552
     27 C         142.0431  137.0708  157.2146 C.ar    1  UNL1        0.1350
     28 C         140.9777  136.9013  156.1725 C.ar    1  UNL1        0.0269
     29 C         140.9514  135.6669  155.3208 C.ar    1  UNL1        0.0404
     30 C         141.9904  134.6020  155.5112 C.ar    1  UNL1        0.1634
     31 C         143.0558  134.7715  156.5534 C.ar    1  UNL1        0.1359
     32 N         143.0822  136.0059  157.4052 N.ar    1  UNL1       -0.2361
     33 O         141.9641  133.3675  154.6595 O.3     1  UNL1       -0.4220
     34 C         141.4682  132.0724  155.2311 C.3     1  UNL1        0.5087
     35 F         140.1530  131.5086  154.7809 F       1  UNL1       -0.1550
     36 F         142.2873  131.3410  156.2529 F       1  UNL1       -0.1550
@<TRIPOS>BOND
     1     9     8    1
     2     9     1    1
     3     1     2   ar
     4     2     3   ar
     5     3    23    1
     6    23    24   am
     7    24    25    2
     8    24    27    1
     9    27    28   ar
    10    28    29   ar
    11    29    30   ar
    12    30    33    1
    13    33    34    1
    14    34    35    1
    15    34    36    1
    16    30    31   ar
    17    31    32   ar
    18     3     4   ar
    19     4     5   ar
    20     5     6   ar
    21     6     7    1
    22     9    10    1
    23    10    11    1
    24    11    12   ar
    25    12    13   ar
    26    13    21    1
    27    21    22    3
    28    13    14   ar
    29    14    15   ar
    30    15    16    1
    31    16    17    1
    32    16    18    2
    33    18     9    1
    34     6     1   ar
    35    15    11   ar
    36    32    27   ar
    37    23    26    1
    38    17    19    1
    39    17    20    1
@<TRIPOS>MOLECULE
*****
 36 39 0 0 0
SMALL
GASTEIGER

@<TRIPOS>ATOM
      1 C         140.2381  144.9492  157.5977 C.ar    1  UNL1        0.0523
      2 C         139.9745  146.3805  157.2348 C.ar    1  UNL1        0.0167
      3 C         139.0257  146.7091  156.1203 C.ar    1  UNL1        0.0505
      4 C         138.3408  145.6063  155.3688 C.ar    1  UNL1        0.0170
      5 C         138.6045  144.1749  155.7318 C.ar    1  UNL1        0.0307
      6 C         139.5532  143.8464  156.8463 C.ar    1  UNL1        0.1401
      7 F         139.8169  142.4151  157.2093 F       1  UNL1       -0.2044
      8 C         141.9679  144.0983  157.5428 C.3     1  UNL1        0.0602
      9 C         141.1869  144.6205  158.7122 C.3     1  UNL1        0.2179
     10 C         142.4069  144.1105  159.4205 C.3     1  UNL1        0.1808
     11 N         142.5163  144.2368  160.9111 N.ar    1  UNL1       -0.2384
     12 N         143.5895  143.8295  161.8768 N.ar    1  UNL1       -0.1584
     13 C         143.1423  144.2141  163.2559 C.ar    1  UNL1        0.1704
     14 C         141.7927  144.8591  163.1427 C.ar    1  UNL1        0.0576
     15 C         141.4059  144.8732  161.6935 C.ar    1  UNL1        0.1615
     16 C         140.1860  145.3831  160.9852 C.2     1  UNL1        0.3305
     17 N         139.0755  146.0194  161.7675 N.pl3   1  UNL1       -0.2452
     18 N         140.0765  145.2568  159.4945 N.2     1  UNL1       -0.0666
     19 H         139.1474  146.1024  162.7459 H       1  UNL1        0.2885
     20 H         138.2749  146.3542  161.3026 H       1  UNL1        0.2885
     21 C         143.9098  143.9926  164.5255 C.1     1  UNL1        0.1216
     22 N         144.6773  143.7711  165.7951 N.1     1  UNL1       -0.1892
     23 N         138.7620  148.1404  155.7574 N.am    1  UNL1       -0.2791
     24 C         139.4752  148.7628  154.5938 C.2     1  UNL1        0.2672
     25 O         140.4522  147.9539  153.7931 O.2     1  UNL1       -0.2682
     26 H         138.1208  148.6713  156.2829 H       1  UNL1        0.1552
     27 C         139.2115  150.1942  154.2309 C.ar    1  UNL1        0.1350
     28 C         139.4492  150.6681  152.8278 C.ar    1  UNL1        0.0269
     29 C         139.1854  152.0995  152.4649 C.ar    1  UNL1        0.0404
     30 C         138.6841  153.0568  153.5052 C.ar    1  UNL1        0.1634
     31 C         138.4465  152.5828  154.9083 C.ar    1  UNL1        0.1359
     32 N         138.7102  151.1515  155.2712 N.ar    1  UNL1       -0.2361
     33 O         138.4204  154.4882  153.1423 O.3     1  UNL1       -0.4220
     34 C         137.6340  155.3648  154.0714 C.3     1  UNL1        0.5087
     35 F         138.3012  155.9819  155.2647 F       1  UNL1       -0.1550
     36 F         136.1804  155.6244  153.8072 F       1  UNL1       -0.1550
@<TRIPOS>BOND
     1     9     8    1
     2     9     1    1
     3     1     2   ar
     4     2     3   ar
     5     3    23    1
     6    23    24   am
     7    24    25    2
     8    24    27    1
     9    27    28   ar
    10    28    29   ar
    11    29    30   ar
    12    30    33    1
    13    33    34    1
    14    34    35    1
    15    34    36    1
    16    30    31   ar
    17    31    32   ar
    18     3     4   ar
    19     4     5   ar
    20     5     6   ar
    21     6     7    1
    22     9    10    1
    23    10    11    1
    24    11    12   ar
    25    12    13   ar
    26    13    21    1
    27    21    22    3
    28    13    14   ar
    29    14    15   ar
    30    15    16    1
    31    16    17    1
    32    16    18    2
    33    18     9    1
    34     6     1   ar
    35    15    11   ar
    36    32    27   ar
    37    23    26    1
    38    17    19    1
    39    17    20    1
