@<TRIPOS>MOLECULE
*****
 25 27 0 0 0
SMALL
GASTEIGER

@<TRIPOS>ATOM
      1 C         141.6932  141.0647  165.4151 C.ar    1  UNL1        0.0541
      2 C         141.9964  140.0131  164.3894 C.ar    1  UNL1        0.0479
      3 BR        141.5194  140.1829  162.9774 Br      1  UNL1       -0.0477
      4 C         142.7766  138.7915  164.7756 C.ar    1  UNL1        0.0079
      5 C         143.2535  138.6217  166.1876 C.ar    1  UNL1        0.0006
      6 C         142.9503  139.6734  167.2133 C.ar    1  UNL1        0.0013
      7 C         142.1702  140.8949  166.8270 C.ar    1  UNL1        0.0145
      8 N         141.5437  145.8772  163.4611 N.3     1  UNL1       -0.3208
      9 C         140.8383  144.6925  164.0518 C.3     1  UNL1        0.0709
     10 C         139.3528  144.7294  164.2563 C.3     1  UNL1        0.0190
     11 C         138.6474  143.5447  164.8470 C.3     1  UNL1        0.0228
     12 C         139.4275  142.3232  165.2333 C.3     1  UNL1        0.0909
     13 N         140.9130  142.2863  165.0288 N.pl3   1  UNL1       -0.3058
     14 C         141.6184  143.4710  164.4381 C.3     1  UNL1        0.1062
     15 H         140.8649  146.6115  163.2599 H       1  UNL1        0.1189
     16 H         142.0100  145.5994  162.5975 H       1  UNL1        0.1189
     17 C         141.8669  141.9466  167.8527 C.2     1  UNL1        0.0124
     18 C         140.7717  141.7247  168.8533 C.2     1  UNL1        0.0873
     19 S         139.8996  140.5080  168.9506 S.3     1  UNL1       -0.0254
     20 C         138.9451  140.7119  170.0897 C.2     1  UNL1        0.2832
     21 O         137.8932  139.7432  170.5426 O.2     1  UNL1       -0.2622
     22 N         139.2273  142.0544  170.6964 N.am    1  UNL1       -0.2425
     23 C         140.3562  142.6803  169.9323 C.2     1  UNL1        0.2583
     24 O         140.9630  144.0257  170.2001 O.2     1  UNL1       -0.2692
     25 H         138.7546  142.4545  171.4617 H       1  UNL1        0.1587
@<TRIPOS>BOND
     1     9     8    1
     2     9    10    1
     3    10    11    1
     4    11    12    1
     5    12    13    1
     6    13     1    1
     7     1     2   ar
     8     2     3    1
     9     2     4   ar
    10     4     5   ar
    11     5     6   ar
    12     6     7   ar
    13     7    17    1
    14    17    18    2
    15    18    19    1
    16    19    20    1
    17    20    21    2
    18    20    22   am
    19    22    23   am
    20    23    24    2
    21    13    14    1
    22    14     9    1
    23     7     1   ar
    24    23    18    1
    25     8    15    1
    26     8    16    1
    27    22    25    1
@<TRIPOS>MOLECULE
*****
 25 27 0 0 0
SMALL
GASTEIGER

@<TRIPOS>ATOM
      1 C         141.4884  140.5743  165.4367 C.ar    1  UNL1        0.0541
      2 C         142.5032  140.2873  164.3700 C.ar    1  UNL1        0.0479
      3 BR        142.3735  140.9275  163.0197 Br      1  UNL1       -0.0477
      4 C         143.6477  139.3601  164.6536 C.ar    1  UNL1        0.0079
      5 C         143.7774  138.7198  166.0039 C.ar    1  UNL1        0.0006
      6 C         142.7626  139.0068  167.0706 C.ar    1  UNL1        0.0013
      7 C         141.6181  139.9340  166.7870 C.ar    1  UNL1        0.0145
      8 N         136.7831  141.4239  163.4024 N.3     1  UNL1       -0.3208
      9 C         137.9912  141.9263  164.1359 C.3     1  UNL1        0.0709
     10 C         138.0549  143.3558  164.5859 C.3     1  UNL1        0.0190
     11 C         139.2630  143.8581  165.3194 C.3     1  UNL1        0.0228
     12 C         140.4075  142.9310  165.6030 C.3     1  UNL1        0.0909
     13 N         140.3439  141.5015  165.1531 N.pl3   1  UNL1       -0.3058
     14 C         139.1357  140.9991  164.4195 C.3     1  UNL1        0.1062
     15 H         136.1092  142.1824  163.2977 H       1  UNL1        0.1189
     16 H         136.3577  140.6615  163.9298 H       1  UNL1        0.1189
     17 C         140.6032  140.2210  167.8537 C.2     1  UNL1        0.0124
     18 C         140.9136  141.2107  168.9373 C.2     1  UNL1        0.0873
     19 S         142.1890  141.9865  169.0840 S.3     1  UNL1       -0.0254
     20 C         142.0667  142.8536  170.3019 C.2     1  UNL1        0.2832
     21 O         143.1118  143.7952  170.8223 O.2     1  UNL1       -0.2622
     22 N         140.7157  142.6136  170.9079 N.am    1  UNL1       -0.2425
     23 C         140.0031  141.5983  170.0646 C.2     1  UNL1        0.2583
     24 O         138.6223  141.0643  170.3061 O.2     1  UNL1       -0.2692
     25 H         140.3593  143.0465  171.7171 H       1  UNL1        0.1587
@<TRIPOS>BOND
     1     9     8    1
     2     9    10    1
     3    10    11    1
     4    11    12    1
     5    12    13    1
     6    13     1    1
     7     1     2   ar
     8     2     3    1
     9     2     4   ar
    10     4     5   ar
    11     5     6   ar
    12     6     7   ar
    13     7    17    1
    14    17    18    2
    15    18    19    1
    16    19    20    1
    17    20    21    2
    18    20    22   am
    19    22    23   am
    20    23    24    2
    21    13    14    1
    22    14     9    1
    23     7     1   ar
    24    23    18    1
    25     8    15    1
    26     8    16    1
    27    22    25    1
@<TRIPOS>MOLECULE
*****
 25 27 0 0 0
SMALL
GASTEIGER

@<TRIPOS>ATOM
      1 C         141.5096  141.0278  165.2833 C.ar    1  UNL1        0.0541
      2 C         141.3198  142.0660  164.2174 C.ar    1  UNL1        0.0479
      3 BR        140.2457  141.8931  163.1848 Br      1  UNL1       -0.0477
      4 C         142.2041  143.2772  164.1842 C.ar    1  UNL1        0.0079
      5 C         143.2783  143.4501  165.2168 C.ar    1  UNL1        0.0006
      6 C         143.4681  142.4118  166.2827 C.ar    1  UNL1        0.0013
      7 C         142.5838  141.2007  166.3159 C.ar    1  UNL1        0.0145
      8 N         137.3011  138.5771  167.0951 N.3     1  UNL1       -0.3208
      9 C         138.5211  138.5913  166.2225 C.3     1  UNL1        0.0709
     10 C         138.8567  137.3944  165.3831 C.3     1  UNL1        0.0190
     11 C         140.0767  137.4085  164.5104 C.3     1  UNL1        0.0228
     12 C         140.9610  138.6196  164.4771 C.3     1  UNL1        0.0909
     13 N         140.6253  139.8166  165.3165 N.pl3   1  UNL1       -0.3058
     14 C         139.4054  139.8024  166.1892 C.3     1  UNL1        0.1062
     15 H         136.8215  137.6826  166.9946 H       1  UNL1        0.1189
     16 H         136.6746  139.3321  166.8160 H       1  UNL1        0.1189
     17 C         142.7736  140.1624  167.3818 C.2     1  UNL1        0.0124
     18 C         142.2207  140.3901  168.7574 C.2     1  UNL1        0.0873
     19 S         141.4601  141.6002  169.2129 S.3     1  UNL1       -0.0254
     20 C         141.1007  141.4055  170.6562 C.2     1  UNL1        0.2832
     21 O         140.3369  142.3716  171.5125 O.2     1  UNL1       -0.2622
     22 N         141.6390  140.0752  171.0927 N.am    1  UNL1       -0.2425
     23 C         142.3313  139.4477  169.9192 C.2     1  UNL1        0.2583
     24 O         143.0141  138.1122  169.9093 O.2     1  UNL1       -0.2692
     25 H         141.5532  139.6829  171.9915 H       1  UNL1        0.1587
@<TRIPOS>BOND
     1     9     8    1
     2     9    10    1
     3    10    11    1
     4    11    12    1
     5    12    13    1
     6    13     1    1
     7     1     2   ar
     8     2     3    1
     9     2     4   ar
    10     4     5   ar
    11     5     6   ar
    12     6     7   ar
    13     7    17    1
    14    17    18    2
    15    18    19    1
    16    19    20    1
    17    20    21    2
    18    20    22   am
    19    22    23   am
    20    23    24    2
    21    13    14    1
    22    14     9    1
    23     7     1   ar
    24    23    18    1
    25     8    15    1
    26     8    16    1
    27    22    25    1
@<TRIPOS>MOLECULE
*****
 25 27 0 0 0
SMALL
GASTEIGER

@<TRIPOS>ATOM
      1 C         141.9687  140.9293  165.4133 C.ar    1  UNL1        0.0541
      2 C         143.1229  140.0258  165.0945 C.ar    1  UNL1        0.0479
      3 BR        143.0346  138.5599  165.4000 Br      1  UNL1       -0.0477
      4 C         144.3654  140.5883  164.4701 C.ar    1  UNL1        0.0079
      5 C         144.4537  142.0542  164.1646 C.ar    1  UNL1        0.0006
      6 C         143.2995  142.9576  164.4834 C.ar    1  UNL1        0.0013
      7 C         142.0570  142.3952  165.1078 C.ar    1  UNL1        0.0145
      8 N         139.1329  139.8855  169.6405 N.3     1  UNL1       -0.3208
      9 C         139.3083  139.8450  168.1513 C.3     1  UNL1        0.0709
     10 C         138.2413  139.2420  167.2866 C.3     1  UNL1        0.0190
     11 C         138.4167  139.2015  165.7974 C.3     1  UNL1        0.0228
     12 C         139.6591  139.7639  165.1730 C.3     1  UNL1        0.0909
     13 N         140.7262  140.3668  166.0377 N.pl3   1  UNL1       -0.3058
     14 C         140.5508  140.4074  167.5269 C.3     1  UNL1        0.1062
     15 H         138.2382  139.4633  169.8891 H       1  UNL1        0.1189
     16 H         139.1518  140.8544  169.9588 H       1  UNL1        0.1189
     17 C         140.9028  143.2986  165.4267 C.2     1  UNL1        0.0124
     18 C         139.8302  143.5342  164.4049 C.2     1  UNL1        0.0873
     19 S         139.7770  142.9387  163.0291 S.3     1  UNL1       -0.0254
     20 C         138.5364  143.4431  162.3534 C.2     1  UNL1        0.2832
     21 O         138.0881  143.1004  160.9636 O.2     1  UNL1       -0.2622
     22 N         137.8229  144.3502  163.3115 N.am    1  UNL1       -0.2425
     23 C         138.6225  144.4065  164.5794 C.2     1  UNL1        0.2583
     24 O         138.2754  145.1965  165.8063 O.2     1  UNL1       -0.2692
     25 H         136.9781  144.8253  163.1386 H       1  UNL1        0.1587
@<TRIPOS>BOND
     1     9     8    1
     2     9    10    1
     3    10    11    1
     4    11    12    1
     5    12    13    1
     6    13     1    1
     7     1     2   ar
     8     2     3    1
     9     2     4   ar
    10     4     5   ar
    11     5     6   ar
    12     6     7   ar
    13     7    17    1
    14    17    18    2
    15    18    19    1
    16    19    20    1
    17    20    21    2
    18    20    22   am
    19    22    23   am
    20    23    24    2
    21    13    14    1
    22    14     9    1
    23     7     1   ar
    24    23    18    1
    25     8    15    1
    26     8    16    1
    27    22    25    1
@<TRIPOS>MOLECULE
*****
 25 27 0 0 0
SMALL
GASTEIGER

@<TRIPOS>ATOM
      1 C         140.7638  140.1549  165.4948 C.ar    1  UNL1        0.0541
      2 C         139.7028  139.9964  164.4464 C.ar    1  UNL1        0.0479
      3 BR        140.0231  140.2730  163.0074 Br      1  UNL1       -0.0477
      4 C         138.3215  139.5612  164.8371 C.ar    1  UNL1        0.0079
      5 C         138.0012  139.2845  166.2761 C.ar    1  UNL1        0.0006
      6 C         139.0623  139.4431  167.3245 C.ar    1  UNL1        0.0013
      7 C         140.4435  139.8782  166.9339 C.ar    1  UNL1        0.0145
      8 N         144.2392  143.9394  164.7205 N.3     1  UNL1       -0.3208
      9 C         143.8828  142.4823  164.7170 C.3     1  UNL1        0.0709
     10 C         144.9077  141.4605  164.3229 C.3     1  UNL1        0.0190
     11 C         144.5514  140.0034  164.3195 C.3     1  UNL1        0.0228
     12 C         143.1701  139.5682  164.7101 C.3     1  UNL1        0.0909
     13 N         142.1452  140.5901  165.1042 N.pl3   1  UNL1       -0.3058
     14 C         142.5016  142.0471  165.1076 C.3     1  UNL1        0.1062
     15 H         145.2106  144.0525  164.4308 H       1  UNL1        0.1189
     16 H         144.1186  144.3167  165.6604 H       1  UNL1        0.1189
     17 C         141.5046  140.0368  167.9823 C.2     1  UNL1        0.0124
     18 C         141.5172  141.2542  168.8585 C.2     1  UNL1        0.0873
     19 S         140.5392  142.3903  168.8034 S.3     1  UNL1       -0.0254
     20 C         140.9276  143.3875  169.8546 C.2     1  UNL1        0.2832
     21 O         140.2219  144.6779  170.1492 O.2     1  UNL1       -0.2622
     22 N         142.1455  142.8677  170.5592 N.am    1  UNL1       -0.2425
     23 C         142.5099  141.5493  169.9436 C.2     1  UNL1        0.2583
     24 O         143.6643  140.6788  170.3431 O.2     1  UNL1       -0.2692
     25 H         142.6220  143.3136  171.2963 H       1  UNL1        0.1587
@<TRIPOS>BOND
     1     9     8    1
     2     9    10    1
     3    10    11    1
     4    11    12    1
     5    12    13    1
     6    13     1    1
     7     1     2   ar
     8     2     3    1
     9     2     4   ar
    10     4     5   ar
    11     5     6   ar
    12     6     7   ar
    13     7    17    1
    14    17    18    2
    15    18    19    1
    16    19    20    1
    17    20    21    2
    18    20    22   am
    19    22    23   am
    20    23    24    2
    21    13    14    1
    22    14     9    1
    23     7     1   ar
    24    23    18    1
    25     8    15    1
    26     8    16    1
    27    22    25    1
@<TRIPOS>MOLECULE
*****
 25 27 0 0 0
SMALL
GASTEIGER

@<TRIPOS>ATOM
      1 C         141.7602  141.5909  164.4782 C.ar    1  UNL1        0.0541
      2 C         143.1025  142.1038  164.0478 C.ar    1  UNL1        0.0479
      3 BR        143.2365  143.4996  163.5151 Br      1  UNL1       -0.0477
      4 C         144.3108  141.2208  164.1501 C.ar    1  UNL1        0.0079
      5 C         144.1768  139.8250  164.6828 C.ar    1  UNL1        0.0006
      6 C         142.8344  139.3122  165.1132 C.ar    1  UNL1        0.0013
      7 C         141.6262  140.1951  165.0109 C.ar    1  UNL1        0.0145
      8 N         137.6024  143.2396  161.8335 N.3     1  UNL1       -0.3208
      9 C         138.4730  143.2982  163.0536 C.3     1  UNL1        0.0709
     10 C         138.1354  144.2397  164.1714 C.3     1  UNL1        0.0190
     11 C         139.0060  144.2983  165.3914 C.3     1  UNL1        0.0228
     12 C         140.2142  143.4154  165.4937 C.3     1  UNL1        0.0909
     13 N         140.5519  142.4739  164.3760 N.pl3   1  UNL1       -0.3058
     14 C         139.6813  142.4153  163.1559 C.3     1  UNL1        0.1062
     15 H         136.8328  143.9016  161.9329 H       1  UNL1        0.1189
     16 H         137.2282  142.2966  161.7278 H       1  UNL1        0.1189
     17 C         140.2839  139.6823  165.4414 C.2     1  UNL1        0.0124
     18 C         139.8713  139.7764  166.8804 C.2     1  UNL1        0.0873
     19 S         140.6900  140.3548  167.9964 S.3     1  UNL1       -0.0254
     20 C         139.8922  140.2445  169.2619 C.2     1  UNL1        0.2832
     21 O         140.3295  140.7007  170.6223 O.2     1  UNL1       -0.2622
     22 N         138.5805  139.5981  168.9281 N.am    1  UNL1       -0.2425
     23 C         138.5675  139.3088  167.4563 C.2     1  UNL1        0.2583
     24 O         137.4475  138.6648  166.6941 O.2     1  UNL1       -0.2692
     25 H         137.8553  139.3986  169.5634 H       1  UNL1        0.1587
@<TRIPOS>BOND
     1     9     8    1
     2     9    10    1
     3    10    11    1
     4    11    12    1
     5    12    13    1
     6    13     1    1
     7     1     2   ar
     8     2     3    1
     9     2     4   ar
    10     4     5   ar
    11     5     6   ar
    12     6     7   ar
    13     7    17    1
    14    17    18    2
    15    18    19    1
    16    19    20    1
    17    20    21    2
    18    20    22   am
    19    22    23   am
    20    23    24    2
    21    13    14    1
    22    14     9    1
    23     7     1   ar
    24    23    18    1
    25     8    15    1
    26     8    16    1
    27    22    25    1
@<TRIPOS>MOLECULE
*****
 25 27 0 0 0
SMALL
GASTEIGER

@<TRIPOS>ATOM
      1 C         139.2810  139.7113  164.6094 C.ar    1  UNL1        0.0541
      2 C         139.3989  138.3566  163.9764 C.ar    1  UNL1        0.0479
      3 BR        140.2333  137.2942  164.6282 Br      1  UNL1       -0.0477
      4 C         138.6823  138.0642  162.6914 C.ar    1  UNL1        0.0079
      5 C         137.8478  139.1266  162.0395 C.ar    1  UNL1        0.0006
      6 C         137.7299  140.4814  162.6726 C.ar    1  UNL1        0.0013
      7 C         138.4465  140.7737  163.9575 C.ar    1  UNL1        0.0145
      8 N         139.3161  139.8898  169.8024 N.3     1  UNL1       -0.3208
      9 C         140.0151  140.0929  168.4908 C.3     1  UNL1        0.0709
     10 C         141.4306  140.5884  168.4642 C.3     1  UNL1        0.0190
     11 C         142.1296  140.7915  167.1527 C.3     1  UNL1        0.0228
     12 C         141.4131  140.4991  165.8678 C.3     1  UNL1        0.0909
     13 N         139.9976  140.0037  165.8944 N.pl3   1  UNL1       -0.3058
     14 C         139.2985  139.8006  167.2059 C.3     1  UNL1        0.1062
     15 H         139.9468  140.1354  170.5654 H       1  UNL1        0.1189
     16 H         139.0385  138.9124  169.8919 H       1  UNL1        0.1189
     17 C         138.3286  142.1285  164.5906 C.2     1  UNL1        0.0124
     18 C         139.2671  143.2278  164.1898 C.2     1  UNL1        0.0873
     19 S         140.3672  143.1219  163.1755 S.3     1  UNL1       -0.0254
     20 C         141.0502  144.4548  163.0917 C.2     1  UNL1        0.2832
     21 O         142.2079  144.7978  162.2017 O.2     1  UNL1       -0.2622
     22 N         140.3723  145.3844  164.0542 N.am    1  UNL1       -0.2425
     23 C         139.2703  144.6261  164.7328 C.2     1  UNL1        0.2583
     24 O         138.3356  145.1705  165.7720 O.2     1  UNL1       -0.2692
     25 H         140.6091  146.3268  164.2126 H       1  UNL1        0.1587
@<TRIPOS>BOND
     1     9     8    1
     2     9    10    1
     3    10    11    1
     4    11    12    1
     5    12    13    1
     6    13     1    1
     7     1     2   ar
     8     2     3    1
     9     2     4   ar
    10     4     5   ar
    11     5     6   ar
    12     6     7   ar
    13     7    17    1
    14    17    18    2
    15    18    19    1
    16    19    20    1
    17    20    21    2
    18    20    22   am
    19    22    23   am
    20    23    24    2
    21    13    14    1
    22    14     9    1
    23     7     1   ar
    24    23    18    1
    25     8    15    1
    26     8    16    1
    27    22    25    1
@<TRIPOS>MOLECULE
*****
 25 27 0 0 0
SMALL
GASTEIGER

@<TRIPOS>ATOM
      1 C         142.1234  142.3651  164.1961 C.ar    1  UNL1        0.0541
      2 C         143.3116  143.1598  163.7418 C.ar    1  UNL1        0.0479
      3 BR        143.1300  144.5643  163.2475 Br      1  UNL1       -0.0477
      4 C         144.6816  142.5501  163.7818 C.ar    1  UNL1        0.0079
      5 C         144.8633  141.1456  164.2762 C.ar    1  UNL1        0.0006
      6 C         143.6749  140.3508  164.7305 C.ar    1  UNL1        0.0013
      7 C         142.3051  140.9606  164.6905 C.ar    1  UNL1        0.0145
      8 N         137.6706  143.2654  161.6739 N.3     1  UNL1       -0.3208
      9 C         138.5271  143.4250  162.8950 C.3     1  UNL1        0.0709
     10 C         138.0137  144.1941  164.0760 C.3     1  UNL1        0.0190
     11 C         138.8702  144.3537  165.2970 C.3     1  UNL1        0.0228
     12 C         140.2401  143.7440  165.3371 C.3     1  UNL1        0.0909
     13 N         140.7535  142.9748  164.1561 N.pl3   1  UNL1       -0.3058
     14 C         139.8970  142.8153  162.9351 C.3     1  UNL1        0.1062
     15 H         136.7793  143.7397  161.8195 H       1  UNL1        0.1189
     16 H         137.5041  142.2738  161.5026 H       1  UNL1        0.1189
     17 C         141.1168  140.1658  165.1448 C.2     1  UNL1        0.0124
     18 C         140.3769  139.2990  164.1695 C.2     1  UNL1        0.0873
     19 S         140.7065  139.1271  162.7162 S.3     1  UNL1       -0.0254
     20 C         139.7108  138.1737  162.1248 C.2     1  UNL1        0.2832
     21 O         139.6677  137.7177  160.6964 O.2     1  UNL1       -0.2622
     22 N         138.7659  137.7565  163.2124 N.am    1  UNL1       -0.2425
     23 C         139.1776  138.4519  164.4761 C.2     1  UNL1        0.2583
     24 O         138.5075  138.3229  165.8119 O.2     1  UNL1       -0.2692
     25 H         138.0085  137.1352  163.1141 H       1  UNL1        0.1587
@<TRIPOS>BOND
     1     9     8    1
     2     9    10    1
     3    10    11    1
     4    11    12    1
     5    12    13    1
     6    13     1    1
     7     1     2   ar
     8     2     3    1
     9     2     4   ar
    10     4     5   ar
    11     5     6   ar
    12     6     7   ar
    13     7    17    1
    14    17    18    2
    15    18    19    1
    16    19    20    1
    17    20    21    2
    18    20    22   am
    19    22    23   am
    20    23    24    2
    21    13    14    1
    22    14     9    1
    23     7     1   ar
    24    23    18    1
    25     8    15    1
    26     8    16    1
    27    22    25    1
@<TRIPOS>MOLECULE
*****
 25 27 0 0 0
SMALL
GASTEIGER

@<TRIPOS>ATOM
      1 C         141.0455  140.1065  165.0305 C.ar    1  UNL1        0.0541
      2 C         141.4983  138.6847  164.8776 C.ar    1  UNL1        0.0479
      3 BR        142.9563  138.3762  164.7071 Br      1  UNL1       -0.0477
      4 C         140.4932  137.5714  164.8952 C.ar    1  UNL1        0.0079
      5 C         139.0352  137.8799  165.0657 C.ar    1  UNL1        0.0006
      6 C         138.5824  139.3018  165.2186 C.ar    1  UNL1        0.0013
      7 C         139.5875  140.4150  165.2010 C.ar    1  UNL1        0.0145
      8 N         143.8082  143.6337  162.3986 N.3     1  UNL1       -0.3208
      9 C         143.4320  142.9834  163.6969 C.3     1  UNL1        0.0709
     10 C         144.0609  143.4463  164.9775 C.3     1  UNL1        0.0190
     11 C         143.6847  142.7960  166.2758 C.3     1  UNL1        0.0228
     12 C         142.6796  141.6828  166.2935 C.3     1  UNL1        0.0909
     13 N         142.0507  141.2198  165.0128 N.pl3   1  UNL1       -0.3058
     14 C         142.4269  141.8701  163.7145 C.3     1  UNL1        0.1062
     15 H         144.4983  144.3645  162.5718 H       1  UNL1        0.1189
     16 H         142.9782  144.0443  161.9709 H       1  UNL1        0.1189
     17 C         139.1347  141.8369  165.3539 C.2     1  UNL1        0.0124
     18 C         138.7313  142.6295  164.1460 C.2     1  UNL1        0.0873
     19 S         138.7288  142.1374  162.7289 S.3     1  UNL1       -0.0254
     20 C         138.2555  143.2572  161.8502 C.2     1  UNL1        0.2832
     21 O         138.0996  143.2024  160.3594 O.2     1  UNL1       -0.2622
     22 N         137.9656  144.4414  162.7241 N.am    1  UNL1       -0.2425
     23 C         138.2596  144.0534  164.1429 C.2     1  UNL1        0.2583
     24 O         138.1085  144.9347  165.3473 O.2     1  UNL1       -0.2692
     25 H         137.6395  145.3191  162.4199 H       1  UNL1        0.1587
@<TRIPOS>BOND
     1     9     8    1
     2     9    10    1
     3    10    11    1
     4    11    12    1
     5    12    13    1
     6    13     1    1
     7     1     2   ar
     8     2     3    1
     9     2     4   ar
    10     4     5   ar
    11     5     6   ar
    12     6     7   ar
    13     7    17    1
    14    17    18    2
    15    18    19    1
    16    19    20    1
    17    20    21    2
    18    20    22   am
    19    22    23   am
    20    23    24    2
    21    13    14    1
    22    14     9    1
    23     7     1   ar
    24    23    18    1
    25     8    15    1
    26     8    16    1
    27    22    25    1
