@<TRIPOS>MOLECULE
*****
 31 33 0 0 0
SMALL
GASTEIGER

@<TRIPOS>ATOM
      1 C         138.9975  142.7329  162.9240 C.ar    1  UNL1        0.1572
      2 C         139.1388  143.3800  161.5782 C.ar    1  UNL1        0.0377
      3 C         139.7805  144.7306  161.4590 C.ar    1  UNL1        0.0519
      4 C         140.2809  145.4340  162.6857 C.ar    1  UNL1        0.0179
      5 C         140.1396  144.7869  164.0315 C.ar    1  UNL1        0.0402
      6 C         139.4979  143.4363  164.1506 C.ar    1  UNL1        0.1638
      7 N         137.7141  140.0318  163.1622 N.3     1  UNL1       -0.2034
      8 S         138.3558  141.3823  163.0431 S.O2    1  UNL1        0.0601
      9 O         137.0013  142.0268  163.0528 O.2     1  UNL1       -0.1531
     10 O         139.7102  140.7379  163.0334 O.2     1  UNL1       -0.1531
     11 H         137.0224  140.0489  163.9118 H       1  UNL1        0.1442
     12 H         138.4273  139.3339  163.3736 H       1  UNL1        0.1442
     13 N         139.9219  145.3777  160.1131 N.am    1  UNL1       -0.2836
     14 C         141.1778  145.1842  159.3161 C.2     1  UNL1        0.2305
     15 O         142.2924  144.3436  159.8650 O.2     1  UNL1       -0.2744
     16 H         139.1903  145.9294  159.7529 H       1  UNL1        0.1549
     17 C         141.3192  145.8313  157.9703 C.3     1  UNL1        0.1116
     18 C         140.2076  145.7287  156.9683 C.ar    1  UNL1       -0.0131
     19 C         139.5881  144.3958  156.6693 C.ar    1  UNL1       -0.0038
     20 C         138.4765  144.2932  155.6673 C.ar    1  UNL1       -0.0003
     21 C         137.9846  145.5235  154.9643 C.ar    1  UNL1       -0.0000
     22 C         138.6042  146.8565  155.2632 C.ar    1  UNL1       -0.0003
     23 C         139.7157  146.9591  156.2652 C.ar    1  UNL1       -0.0038
     24 O         139.3565  142.7892  165.4965 O.3     1  UNL1       -0.4521
     25 C         140.5631  142.5966  166.3665 C.ar    1  UNL1        0.1462
     26 C         141.8553  142.1303  165.7642 C.ar    1  UNL1        0.0375
     27 C         143.0620  141.9377  166.6343 C.ar    1  UNL1        0.0040
     28 C         142.9764  142.2113  168.1066 C.ar    1  UNL1        0.0116
     29 C         141.6842  142.6776  168.7089 C.ar    1  UNL1        0.0607
     30 CL        141.5986  142.9513  170.1812 Cl      1  UNL1       -0.0821
     31 C         140.4776  142.8703  167.8389 C.ar    1  UNL1        0.0489
@<TRIPOS>BOND
     1     7     8    1
     2     8     9    2
     3     8    10    2
     4     8     1    1
     5     1     2   ar
     6     2     3   ar
     7     3    13    1
     8    13    14   am
     9    14    15    2
    10    14    17    1
    11    17    18    1
    12    18    19   ar
    13    19    20   ar
    14    20    21   ar
    15    21    22   ar
    16    22    23   ar
    17     3     4   ar
    18     4     5   ar
    19     5     6   ar
    20     6    24    1
    21    24    25    1
    22    25    26   ar
    23    26    27   ar
    24    27    28   ar
    25    28    29   ar
    26    29    30    1
    27    29    31   ar
    28     6     1   ar
    29    31    25   ar
    30    23    18   ar
    31     7    11    1
    32     7    12    1
    33    13    16    1
@<TRIPOS>MOLECULE
*****
 31 33 0 0 0
SMALL
GASTEIGER

@<TRIPOS>ATOM
      1 C         140.5382  144.6859  160.9463 C.ar    1  UNL1        0.1572
      2 C         140.4135  145.6060  159.7682 C.ar    1  UNL1        0.0377
      3 C         141.1115  145.2766  158.4820 C.ar    1  UNL1        0.0519
      4 C         141.9342  144.0270  158.3739 C.ar    1  UNL1        0.0179
      5 C         142.0589  143.1069  159.5519 C.ar    1  UNL1        0.0402
      6 C         141.3609  143.4364  160.8381 C.ar    1  UNL1        0.1638
      7 N         139.1423  145.3448  163.5187 N.3     1  UNL1       -0.2034
      8 S         139.8403  145.0154  162.2325 S.O2    1  UNL1        0.0601
      9 O         141.0551  145.7601  162.7010 O.2     1  UNL1       -0.1531
     10 O         138.6254  144.2707  161.7640 O.2     1  UNL1       -0.1531
     11 H         139.7572  145.1304  164.3038 H       1  UNL1        0.1442
     12 H         138.2890  144.7911  163.5940 H       1  UNL1        0.1442
     13 N         140.9868  146.1968  157.3040 N.am    1  UNL1       -0.2836
     14 C         140.0243  145.8749  156.1995 C.2     1  UNL1        0.2305
     15 O         139.1865  144.6327  156.2730 O.2     1  UNL1       -0.2744
     16 H         141.5366  147.0120  157.2557 H       1  UNL1        0.1549
     17 C         139.8995  146.7950  155.0214 C.3     1  UNL1        0.1116
     18 C         139.4579  148.2144  155.2219 C.ar    1  UNL1       -0.0131
     19 C         139.8093  149.2599  154.2053 C.ar    1  UNL1       -0.0038
     20 C         139.3677  150.6793  154.4058 C.ar    1  UNL1       -0.0003
     21 C         138.5747  151.0533  155.6228 C.ar    1  UNL1       -0.0000
     22 C         138.2233  150.0078  156.6395 C.ar    1  UNL1       -0.0003
     23 C         138.6649  148.5884  156.4391 C.ar    1  UNL1       -0.0038
     24 O         141.4856  142.5161  162.0161 O.3     1  UNL1       -0.4521
     25 C         142.8125  142.3400  162.6930 C.ar    1  UNL1        0.1462
     26 C         143.7764  141.3037  162.1959 C.ar    1  UNL1        0.0375
     27 C         145.1034  141.1276  162.8728 C.ar    1  UNL1        0.0040
     28 C         145.4664  141.9877  164.0468 C.ar    1  UNL1        0.0116
     29 C         144.5026  143.0239  164.5440 C.ar    1  UNL1        0.0607
     30 CL        144.8656  143.8840  165.7181 Cl      1  UNL1       -0.0821
     31 C         143.1757  143.2001  163.8671 C.ar    1  UNL1        0.0489
@<TRIPOS>BOND
     1     7     8    1
     2     8     9    2
     3     8    10    2
     4     8     1    1
     5     1     2   ar
     6     2     3   ar
     7     3    13    1
     8    13    14   am
     9    14    15    2
    10    14    17    1
    11    17    18    1
    12    18    19   ar
    13    19    20   ar
    14    20    21   ar
    15    21    22   ar
    16    22    23   ar
    17     3     4   ar
    18     4     5   ar
    19     5     6   ar
    20     6    24    1
    21    24    25    1
    22    25    26   ar
    23    26    27   ar
    24    27    28   ar
    25    28    29   ar
    26    29    30    1
    27    29    31   ar
    28     6     1   ar
    29    31    25   ar
    30    23    18   ar
    31     7    11    1
    32     7    12    1
    33    13    16    1
@<TRIPOS>MOLECULE
*****
 31 33 0 0 0
SMALL
GASTEIGER

@<TRIPOS>ATOM
      1 C         138.6253  140.6155  162.9784 C.ar    1  UNL1        0.1572
      2 C         139.3584  140.5848  164.2866 C.ar    1  UNL1        0.0377
      3 C         139.8309  139.2778  164.8511 C.ar    1  UNL1        0.0519
      4 C         139.5701  138.0016  164.1074 C.ar    1  UNL1        0.0179
      5 C         138.8370  138.0323  162.7992 C.ar    1  UNL1        0.0402
      6 C         138.3645  139.3392  162.2347 C.ar    1  UNL1        0.1638
      7 N         137.6804  143.2294  161.8494 N.3     1  UNL1       -0.2034
      8 S         138.1528  141.9225  162.4139 S.O2    1  UNL1        0.0601
      9 O         139.4936  142.1310  161.7745 O.2     1  UNL1       -0.1531
     10 O         136.8120  141.7139  163.0533 O.2     1  UNL1       -0.1531
     11 H         138.3724  143.9533  162.0429 H       1  UNL1        0.1442
     12 H         136.7918  143.4846  162.2804 H       1  UNL1        0.1442
     13 N         140.5641  139.2471  166.1594 N.am    1  UNL1       -0.2836
     14 C         142.0640  139.2446  166.1786 C.2     1  UNL1        0.2305
     15 O         142.8306  139.2728  164.8896 O.2     1  UNL1       -0.2744
     16 H         140.0609  139.2287  167.0054 H       1  UNL1        0.1549
     17 C         142.7972  139.2140  167.4868 C.3     1  UNL1        0.1116
     18 C         142.4615  140.2087  168.5582 C.ar    1  UNL1       -0.0131
     19 C         141.7671  139.7581  169.8091 C.ar    1  UNL1       -0.0038
     20 C         141.4314  140.7528  170.8805 C.ar    1  UNL1       -0.0003
     21 C         141.7902  142.1981  170.7011 C.ar    1  UNL1       -0.0000
     22 C         142.4847  142.6488  169.4502 C.ar    1  UNL1       -0.0003
     23 C         142.8204  141.6541  168.3788 C.ar    1  UNL1       -0.0038
     24 O         137.6313  139.3699  160.9264 O.3     1  UNL1       -0.4521
     25 C         138.3901  139.5529  159.6455 C.ar    1  UNL1        0.1462
     26 C         137.9655  140.6068  158.6662 C.ar    1  UNL1        0.0375
     27 C         138.7244  140.7897  157.3853 C.ar    1  UNL1        0.0040
     28 C         139.9077  139.9187  157.0837 C.ar    1  UNL1        0.0116
     29 C         140.3323  138.8648  158.0629 C.ar    1  UNL1        0.0607
     30 CL        141.5157  137.9938  157.7613 Cl      1  UNL1       -0.0821
     31 C         139.5735  138.6819  159.3438 C.ar    1  UNL1        0.0489
@<TRIPOS>BOND
     1     7     8    1
     2     8     9    2
     3     8    10    2
     4     8     1    1
     5     1     2   ar
     6     2     3   ar
     7     3    13    1
     8    13    14   am
     9    14    15    2
    10    14    17    1
    11    17    18    1
    12    18    19   ar
    13    19    20   ar
    14    20    21   ar
    15    21    22   ar
    16    22    23   ar
    17     3     4   ar
    18     4     5   ar
    19     5     6   ar
    20     6    24    1
    21    24    25    1
    22    25    26   ar
    23    26    27   ar
    24    27    28   ar
    25    28    29   ar
    26    29    30    1
    27    29    31   ar
    28     6     1   ar
    29    31    25   ar
    30    23    18   ar
    31     7    11    1
    32     7    12    1
    33    13    16    1
@<TRIPOS>MOLECULE
*****
 31 33 0 0 0
SMALL
GASTEIGER

@<TRIPOS>ATOM
      1 C         140.1083  139.1492  163.1284 C.ar    1  UNL1        0.1572
      2 C         140.3827  139.4972  164.5615 C.ar    1  UNL1        0.0377
      3 C         139.4332  140.3820  165.3135 C.ar    1  UNL1        0.0519
      4 C         138.2093  140.9189  164.6325 C.ar    1  UNL1        0.0179
      5 C         137.9349  140.5709  163.1995 C.ar    1  UNL1        0.0402
      6 C         138.8844  139.6861  162.4475 C.ar    1  UNL1        0.1638
      7 N         142.0073  137.3796  161.6244 N.3     1  UNL1       -0.2034
      8 S         141.0578  138.2644  162.3764 S.O2    1  UNL1        0.0601
      9 O         141.8291  139.4711  161.9305 O.2     1  UNL1       -0.1531
     10 O         140.2864  137.0577  162.8223 O.2     1  UNL1       -0.1531
     11 H         142.1329  137.7414  160.6790 H       1  UNL1        0.1442
     12 H         141.6273  136.4341  161.5788 H       1  UNL1        0.1442
     13 N         139.7077  140.7299  166.7466 N.am    1  UNL1       -0.2836
     14 C         139.0799  139.9266  167.8469 C.2     1  UNL1        0.2305
     15 O         138.1777  138.7754  167.5140 O.2     1  UNL1       -0.2744
     16 H         140.2998  141.4855  166.9650 H       1  UNL1        0.1549
     17 C         139.3543  140.2745  169.2799 C.3     1  UNL1        0.1116
     18 C         140.4988  141.1803  169.6259 C.ar    1  UNL1       -0.0131
     19 C         141.8805  140.6174  169.7805 C.ar    1  UNL1       -0.0038
     20 C         143.0250  141.5231  170.1265 C.ar    1  UNL1       -0.0003
     21 C         142.7878  142.9918  170.3179 C.ar    1  UNL1       -0.0000
     22 C         141.4061  143.5548  170.1632 C.ar    1  UNL1       -0.0003
     23 C         140.2616  142.6490  169.8172 C.ar    1  UNL1       -0.0038
     24 O         138.6099  139.3381  161.0144 O.3     1  UNL1       -0.4521
     25 C         138.6857  140.3995  159.9571 C.ar    1  UNL1        0.1462
     26 C         139.7071  141.4928  160.0638 C.ar    1  UNL1        0.0375
     27 C         139.7829  142.5541  159.0065 C.ar    1  UNL1        0.0040
     28 C         138.8373  142.5221  157.8426 C.ar    1  UNL1        0.0116
     29 C         137.8159  141.4288  157.7359 C.ar    1  UNL1        0.0607
     30 CL        136.8702  141.3968  156.5720 Cl      1  UNL1       -0.0821
     31 C         137.7401  140.3675  158.7931 C.ar    1  UNL1        0.0489
@<TRIPOS>BOND
     1     7     8    1
     2     8     9    2
     3     8    10    2
     4     8     1    1
     5     1     2   ar
     6     2     3   ar
     7     3    13    1
     8    13    14   am
     9    14    15    2
    10    14    17    1
    11    17    18    1
    12    18    19   ar
    13    19    20   ar
    14    20    21   ar
    15    21    22   ar
    16    22    23   ar
    17     3     4   ar
    18     4     5   ar
    19     5     6   ar
    20     6    24    1
    21    24    25    1
    22    25    26   ar
    23    26    27   ar
    24    27    28   ar
    25    28    29   ar
    26    29    30    1
    27    29    31   ar
    28     6     1   ar
    29    31    25   ar
    30    23    18   ar
    31     7    11    1
    32     7    12    1
    33    13    16    1
@<TRIPOS>MOLECULE
*****
 31 33 0 0 0
SMALL
GASTEIGER

@<TRIPOS>ATOM
      1 C         141.8879  143.9432  163.2858 C.ar    1  UNL1        0.1572
      2 C         141.6776  143.1535  164.5436 C.ar    1  UNL1        0.0377
      3 C         140.3232  143.1146  165.1871 C.ar    1  UNL1        0.0519
      4 C         139.1791  143.8654  164.5728 C.ar    1  UNL1        0.0179
      5 C         139.3895  144.6550  163.3150 C.ar    1  UNL1        0.0402
      6 C         140.7439  144.6940  162.6715 C.ar    1  UNL1        0.1638
      7 N         144.5967  144.0211  161.9988 N.3     1  UNL1       -0.2034
      8 S         143.2423  143.9821  162.6423 S.O2    1  UNL1        0.0601
      9 O         143.5847  145.2074  163.4369 O.2     1  UNL1       -0.1531
     10 O         142.9000  142.7569  161.8476 O.2     1  UNL1       -0.1531
     11 H         144.7866  144.9653  161.6630 H       1  UNL1        0.1442
     12 H         144.6190  143.3701  161.2138 H       1  UNL1        0.1442
     13 N         140.1129  142.3248  166.4450 N.am    1  UNL1       -0.2836
     14 C         139.6769  140.8917  166.3667 C.2     1  UNL1        0.2305
     15 O         139.4512  140.2484  165.0305 O.2     1  UNL1       -0.2744
     16 H         140.2611  142.7471  167.3219 H       1  UNL1        0.1549
     17 C         139.4666  140.1020  167.6245 C.3     1  UNL1        0.1116
     18 C         140.3338  140.3541  168.8222 C.ar    1  UNL1       -0.0131
     19 C         141.7028  139.7461  168.8983 C.ar    1  UNL1       -0.0038
     20 C         142.5700  139.9982  170.0960 C.ar    1  UNL1       -0.0003
     21 C         142.0680  140.8584  171.2176 C.ar    1  UNL1       -0.0000
     22 C         140.6989  141.4665  171.1416 C.ar    1  UNL1       -0.0003
     23 C         139.8317  141.2144  169.9438 C.ar    1  UNL1       -0.0038
     24 O         140.9541  145.4837  161.4136 O.3     1  UNL1       -0.4521
     25 C         140.4976  144.9312  160.0960 C.ar    1  UNL1        0.1462
     26 C         139.8926  143.5603  160.0267 C.ar    1  UNL1        0.0375
     27 C         139.4361  143.0078  158.7089 C.ar    1  UNL1        0.0040
     28 C         139.5844  143.8261  157.4607 C.ar    1  UNL1        0.0116
     29 C         140.1893  145.1970  157.5300 C.ar    1  UNL1        0.0607
     30 CL        140.3377  146.0153  156.2817 Cl      1  UNL1       -0.0821
     31 C         140.6459  145.7495  158.8476 C.ar    1  UNL1        0.0489
@<TRIPOS>BOND
     1     7     8    1
     2     8     9    2
     3     8    10    2
     4     8     1    1
     5     1     2   ar
     6     2     3   ar
     7     3    13    1
     8    13    14   am
     9    14    15    2
    10    14    17    1
    11    17    18    1
    12    18    19   ar
    13    19    20   ar
    14    20    21   ar
    15    21    22   ar
    16    22    23   ar
    17     3     4   ar
    18     4     5   ar
    19     5     6   ar
    20     6    24    1
    21    24    25    1
    22    25    26   ar
    23    26    27   ar
    24    27    28   ar
    25    28    29   ar
    26    29    30    1
    27    29    31   ar
    28     6     1   ar
    29    31    25   ar
    30    23    18   ar
    31     7    11    1
    32     7    12    1
    33    13    16    1
@<TRIPOS>MOLECULE
*****
 31 33 0 0 0
SMALL
GASTEIGER

@<TRIPOS>ATOM
      1 C         139.0980  139.4096  161.0872 C.ar    1  UNL1        0.1572
      2 C         140.0428  138.7285  160.1420 C.ar    1  UNL1        0.0377
      3 C         140.2368  139.2688  158.7562 C.ar    1  UNL1        0.0519
      4 C         139.4860  140.4903  158.3156 C.ar    1  UNL1        0.0179
      5 C         138.5412  141.1715  159.2608 C.ar    1  UNL1        0.0402
      6 C         138.3472  140.6311  160.6465 C.ar    1  UNL1        0.1638
      7 N         138.7100  138.3289  163.8587 N.3     1  UNL1       -0.2034
      8 S         138.9040  138.8692  162.4729 S.O2    1  UNL1        0.0601
      9 O         140.0445  139.7123  162.9613 O.2     1  UNL1       -0.1531
     10 O         137.7635  138.0262  161.9846 O.2     1  UNL1       -0.1531
     11 H         139.6089  138.0277  164.2351 H       1  UNL1        0.1442
     12 H         138.0710  137.5344  163.8275 H       1  UNL1        0.1442
     13 N         141.1816  138.5876  157.8111 N.am    1  UNL1       -0.2836
     14 C         140.6537  137.6345  156.7801 C.2     1  UNL1        0.2305
     15 O         139.1810  137.3626  156.6943 O.2     1  UNL1       -0.2744
     16 H         142.1482  138.7661  157.8674 H       1  UNL1        0.1549
     17 C         141.5985  136.9533  155.8349 C.3     1  UNL1        0.1116
     18 C         142.0595  135.5535  156.1143 C.ar    1  UNL1       -0.0131
     19 C         143.1051  135.3029  157.1603 C.ar    1  UNL1       -0.0038
     20 C         143.5661  133.9031  157.4397 C.ar    1  UNL1       -0.0003
     21 C         142.9816  132.7539  156.6732 C.ar    1  UNL1       -0.0000
     22 C         141.9359  133.0044  155.6272 C.ar    1  UNL1       -0.0003
     23 C         141.4749  134.4042  155.3478 C.ar    1  UNL1       -0.0038
     24 O         137.4023  141.3123  161.5917 O.3     1  UNL1       -0.4521
     25 C         137.8794  142.4595  162.4321 C.ar    1  UNL1        0.1462
     26 C         137.6552  142.4471  163.9152 C.ar    1  UNL1        0.0375
     27 C         138.1323  143.5944  164.7555 C.ar    1  UNL1        0.0040
     28 C         138.8336  144.7541  164.1128 C.ar    1  UNL1        0.0116
     29 C         139.0578  144.7666  162.6297 C.ar    1  UNL1        0.0607
     30 CL        139.7591  145.9263  161.9869 Cl      1  UNL1       -0.0821
     31 C         138.5808  143.6194  161.7893 C.ar    1  UNL1        0.0489
@<TRIPOS>BOND
     1     7     8    1
     2     8     9    2
     3     8    10    2
     4     8     1    1
     5     1     2   ar
     6     2     3   ar
     7     3    13    1
     8    13    14   am
     9    14    15    2
    10    14    17    1
    11    17    18    1
    12    18    19   ar
    13    19    20   ar
    14    20    21   ar
    15    21    22   ar
    16    22    23   ar
    17     3     4   ar
    18     4     5   ar
    19     5     6   ar
    20     6    24    1
    21    24    25    1
    22    25    26   ar
    23    26    27   ar
    24    27    28   ar
    25    28    29   ar
    26    29    30    1
    27    29    31   ar
    28     6     1   ar
    29    31    25   ar
    30    23    18   ar
    31     7    11    1
    32     7    12    1
    33    13    16    1
@<TRIPOS>MOLECULE
*****
 31 33 0 0 0
SMALL
GASTEIGER

@<TRIPOS>ATOM
      1 C         139.8072  144.1724  161.9567 C.ar    1  UNL1        0.1572
      2 C         140.0632  144.3660  163.4219 C.ar    1  UNL1        0.0377
      3 C         139.1695  143.7103  164.4325 C.ar    1  UNL1        0.0519
      4 C         138.0197  142.8610  163.9779 C.ar    1  UNL1        0.0179
      5 C         137.7638  142.6674  162.5127 C.ar    1  UNL1        0.0402
      6 C         138.6575  143.3231  161.5021 C.ar    1  UNL1        0.1638
      7 N         141.5947  145.4838  159.9355 N.3     1  UNL1       -0.2034
      8 S         140.7009  144.8281  160.9461 S.O2    1  UNL1        0.0601
      9 O         139.7657  145.9989  160.8786 O.2     1  UNL1       -0.1531
     10 O         141.6362  143.6573  161.0136 O.2     1  UNL1       -0.1531
     11 H         141.0354  145.8073  159.1462 H       1  UNL1        0.1442
     12 H         142.2882  144.8114  159.6079 H       1  UNL1        0.1442
     13 N         139.4255  143.9040  165.8978 N.am    1  UNL1       -0.2836
     14 C         140.1321  142.8389  166.6829 C.2     1  UNL1        0.2305
     15 O         140.5827  141.5802  166.0026 O.2     1  UNL1       -0.2744
     16 H         139.1298  144.7301  166.3442 H       1  UNL1        0.1549
     17 C         140.3882  143.0326  168.1481 C.3     1  UNL1        0.1116
     18 C         141.1975  142.0237  168.9078 C.ar    1  UNL1       -0.0131
     19 C         142.6385  142.2995  169.2199 C.ar    1  UNL1       -0.0038
     20 C         143.4478  141.2907  169.9796 C.ar    1  UNL1       -0.0003
     21 C         142.8162  140.0059  170.4271 C.ar    1  UNL1       -0.0000
     22 C         141.3751  139.7299  170.1150 C.ar    1  UNL1       -0.0003
     23 C         140.5658  140.7388  169.3553 C.ar    1  UNL1       -0.0038
     24 O         138.4014  143.1294  160.0368 O.3     1  UNL1       -0.4521
     25 C         138.7759  141.8368  159.3744 C.ar    1  UNL1        0.1462
     26 C         138.2791  141.5306  157.9926 C.ar    1  UNL1        0.0375
     27 C         138.6536  140.2379  157.3302 C.ar    1  UNL1        0.0040
     28 C         139.5249  139.2514  158.0497 C.ar    1  UNL1        0.0116
     29 C         140.0217  139.5576  159.4315 C.ar    1  UNL1        0.0607
     30 CL        140.8930  138.5711  160.1509 Cl      1  UNL1       -0.0821
     31 C         139.6473  140.8502  160.0939 C.ar    1  UNL1        0.0489
@<TRIPOS>BOND
     1     7     8    1
     2     8     9    2
     3     8    10    2
     4     8     1    1
     5     1     2   ar
     6     2     3   ar
     7     3    13    1
     8    13    14   am
     9    14    15    2
    10    14    17    1
    11    17    18    1
    12    18    19   ar
    13    19    20   ar
    14    20    21   ar
    15    21    22   ar
    16    22    23   ar
    17     3     4   ar
    18     4     5   ar
    19     5     6   ar
    20     6    24    1
    21    24    25    1
    22    25    26   ar
    23    26    27   ar
    24    27    28   ar
    25    28    29   ar
    26    29    30    1
    27    29    31   ar
    28     6     1   ar
    29    31    25   ar
    30    23    18   ar
    31     7    11    1
    32     7    12    1
    33    13    16    1
@<TRIPOS>MOLECULE
*****
 31 33 0 0 0
SMALL
GASTEIGER

@<TRIPOS>ATOM
      1 C         139.2262  143.7226  162.5470 C.ar    1  UNL1        0.1572
      2 C         139.1510  143.1487  163.9308 C.ar    1  UNL1        0.0377
      3 C         138.6051  141.7675  164.1413 C.ar    1  UNL1        0.0519
      4 C         138.1343  140.9602  162.9681 C.ar    1  UNL1        0.0179
      5 C         138.2095  141.5341  161.5843 C.ar    1  UNL1        0.0402
      6 C         138.7554  142.9153  161.3737 C.ar    1  UNL1        0.1638
      7 N         140.3181  146.4849  162.1259 N.3     1  UNL1       -0.2034
      8 S         139.7721  145.1037  162.3364 S.O2    1  UNL1        0.0601
      9 O         141.1653  144.5827  162.5308 O.2     1  UNL1       -0.1531
     10 O         138.3790  145.6248  162.1420 O.2     1  UNL1       -0.1531
     11 H         140.9824  146.7047  162.8680 H       1  UNL1        0.1442
     12 H         139.5530  147.1592  162.1436 H       1  UNL1        0.1442
     13 N         138.5299  141.1937  165.5252 N.am    1  UNL1       -0.2836
     14 C         139.7027  140.4514  166.0941 C.2     1  UNL1        0.2305
     15 O         140.9507  140.2830  165.2790 O.2     1  UNL1       -0.2744
     16 H         137.7109  141.3042  166.0602 H       1  UNL1        0.1549
     17 C         139.6276  139.8776  167.4779 C.3     1  UNL1        0.1116
     18 C         140.2221  140.6265  168.6337 C.ar    1  UNL1       -0.0131
     19 C         140.6878  139.8822  169.8498 C.ar    1  UNL1       -0.0038
     20 C         141.2822  140.6310  171.0056 C.ar    1  UNL1       -0.0003
     21 C         141.4109  142.1243  170.9452 C.ar    1  UNL1       -0.0000
     22 C         140.9452  142.8687  169.7290 C.ar    1  UNL1       -0.0003
     23 C         140.3508  142.1198  168.5732 C.ar    1  UNL1       -0.0038
     24 O         138.8306  143.4891  159.9898 O.3     1  UNL1       -0.4521
     25 C         140.1555  143.6023  159.2957 C.ar    1  UNL1        0.1462
     26 C         141.1093  142.4447  159.3069 C.ar    1  UNL1        0.0375
     27 C         142.4343  142.5579  158.6128 C.ar    1  UNL1        0.0040
     28 C         142.8054  143.8287  157.9076 C.ar    1  UNL1        0.0116
     29 C         141.8515  144.9863  157.8964 C.ar    1  UNL1        0.0607
     30 CL        142.2225  146.2571  157.1911 Cl      1  UNL1       -0.0821
     31 C         140.5266  144.8731  158.5904 C.ar    1  UNL1        0.0489
@<TRIPOS>BOND
     1     7     8    1
     2     8     9    2
     3     8    10    2
     4     8     1    1
     5     1     2   ar
     6     2     3   ar
     7     3    13    1
     8    13    14   am
     9    14    15    2
    10    14    17    1
    11    17    18    1
    12    18    19   ar
    13    19    20   ar
    14    20    21   ar
    15    21    22   ar
    16    22    23   ar
    17     3     4   ar
    18     4     5   ar
    19     5     6   ar
    20     6    24    1
    21    24    25    1
    22    25    26   ar
    23    26    27   ar
    24    27    28   ar
    25    28    29   ar
    26    29    30    1
    27    29    31   ar
    28     6     1   ar
    29    31    25   ar
    30    23    18   ar
    31     7    11    1
    32     7    12    1
    33    13    16    1
@<TRIPOS>MOLECULE
*****
 31 33 0 0 0
SMALL
GASTEIGER

@<TRIPOS>ATOM
      1 C         139.9814  143.1353  163.5776 C.ar    1  UNL1        0.1572
      2 C         140.2774  143.4572  162.1428 C.ar    1  UNL1        0.0377
      3 C         141.5724  144.1184  161.7743 C.ar    1  UNL1        0.0519
      4 C         142.5713  144.4578  162.8405 C.ar    1  UNL1        0.0179
      5 C         142.2753  144.1359  164.2753 C.ar    1  UNL1        0.0402
      6 C         140.9803  143.4747  164.6439 C.ar    1  UNL1        0.1638
      7 N         137.3914  141.8129  164.3147 N.3     1  UNL1       -0.2034
      8 S         138.6864  142.4741  163.9462 S.O2    1  UNL1        0.0601
      9 O         139.2831  141.1331  163.6368 O.2     1  UNL1       -0.1531
     10 O         138.0897  143.8151  164.2556 O.2     1  UNL1       -0.1531
     11 H         137.1274  141.1517  163.5844 H       1  UNL1        0.1442
     12 H         136.6637  142.5210  164.4117 H       1  UNL1        0.1442
     13 N         141.8684  144.4403  160.3394 N.am    1  UNL1       -0.2836
     14 C         140.9527  145.3450  159.5694 C.2     1  UNL1        0.2305
     15 O         139.7409  145.9278  160.2343 O.2     1  UNL1       -0.2744
     16 H         142.6638  144.0578  159.9031 H       1  UNL1        0.1549
     17 C         141.2487  145.6669  158.1346 C.3     1  UNL1        0.1116
     18 C         140.1600  145.5797  157.1064 C.ar    1  UNL1       -0.0131
     19 C         139.6927  146.8188  156.4019 C.ar    1  UNL1       -0.0038
     20 C         138.6040  146.7317  155.3737 C.ar    1  UNL1       -0.0003
     21 C         137.9826  145.4054  155.0500 C.ar    1  UNL1       -0.0000
     22 C         138.4498  144.1662  155.7545 C.ar    1  UNL1       -0.0003
     23 C         139.5385  144.2534  156.7826 C.ar    1  UNL1       -0.0038
     24 O         140.6843  143.1528  166.0788 O.3     1  UNL1       -0.4521
     25 C         141.3628  141.9912  166.7423 C.ar    1  UNL1        0.1462
     26 C         141.6636  142.0374  168.2111 C.ar    1  UNL1        0.0375
     27 C         142.3422  140.8757  168.8745 C.ar    1  UNL1        0.0040
     28 C         142.7200  139.6680  168.0692 C.ar    1  UNL1        0.0116
     29 C         142.4192  139.6218  166.6004 C.ar    1  UNL1        0.0607
     30 CL        142.7969  138.4141  165.7951 Cl      1  UNL1       -0.0821
     31 C         141.7406  140.7834  165.9369 C.ar    1  UNL1        0.0489
@<TRIPOS>BOND
     1     7     8    1
     2     8     9    2
     3     8    10    2
     4     8     1    1
     5     1     2   ar
     6     2     3   ar
     7     3    13    1
     8    13    14   am
     9    14    15    2
    10    14    17    1
    11    17    18    1
    12    18    19   ar
    13    19    20   ar
    14    20    21   ar
    15    21    22   ar
    16    22    23   ar
    17     3     4   ar
    18     4     5   ar
    19     5     6   ar
    20     6    24    1
    21    24    25    1
    22    25    26   ar
    23    26    27   ar
    24    27    28   ar
    25    28    29   ar
    26    29    30    1
    27    29    31   ar
    28     6     1   ar
    29    31    25   ar
    30    23    18   ar
    31     7    11    1
    32     7    12    1
    33    13    16    1
