@<TRIPOS>MOLECULE
*****
 46 52 0 0 0
SMALL
GASTEIGER

@<TRIPOS>ATOM
      1 C         143.1583  139.1451  157.6631 C.2     1  UNL1        0.2491
      2 O         144.5325  139.6187  157.2927 O.2     1  UNL1       -0.2699
      3 N         142.4066  139.8187  158.7728 N.am    1  UNL1       -0.2761
      4 C         143.0291  140.9659  159.5120 C.3     1  UNL1        0.0940
      5 C         142.2774  141.6394  160.6216 C.3     1  UNL1        0.0257
      6 C         140.9031  141.1658  160.9921 C.3     1  UNL1        0.0235
      7 C         140.2806  140.0186  160.2528 C.3     1  UNL1        0.0257
      8 C         141.0323  139.3451  159.1432 C.3     1  UNL1        0.0940
      9 C         142.3010  135.4417  156.5230 C.ar    1  UNL1        0.1221
     10 C         141.2906  135.7035  155.4457 C.ar    1  UNL1        0.0199
     11 C         140.9028  137.1125  155.1075 C.ar    1  UNL1        0.0015
     12 C         141.5253  138.2597  155.8466 C.ar    1  UNL1        0.0046
     13 C         142.5357  137.9980  156.9239 C.ar    1  UNL1        0.0549
     14 C         142.9235  136.5890  157.2621 C.ar    1  UNL1        0.0244
     15 S         142.6887  134.0328  156.8611 S.O2    1  UNL1        0.0603
     16 O         143.6023  134.5422  157.9363 O.2     1  UNL1       -0.1530
     17 O         141.7752  133.5233  155.7860 O.2     1  UNL1       -0.1530
     18 C         144.4842  132.3120  157.6130 C.3     1  UNL1        0.1102
     19 N         143.0765  132.6238  157.1993 N.3     1  UNL1       -0.1779
     20 H         142.4720  132.3279  157.9657 H       1  UNL1        0.1488
     21 C         141.0684  142.2833  161.9790 C.ar    1  UNL1       -0.0226
     22 C         141.2865  141.9757  163.4307 C.ar    1  UNL1       -0.0043
     23 C         141.4518  143.0932  164.4177 C.ar    1  UNL1       -0.0003
     24 C         141.3988  144.5183  163.9526 C.ar    1  UNL1       -0.0000
     25 C         141.1807  144.8260  162.5008 C.ar    1  UNL1       -0.0003
     26 C         141.0155  143.7084  161.5140 C.ar    1  UNL1       -0.0043
     27 C         139.5864  141.0803  161.7052 C.3     1  UNL1        0.0215
     28 C         138.3218  141.4607  160.9935 C.3     1  UNL1        0.0723
     29 N         138.3308  141.6693  159.5082 N.3     1  UNL1       -0.2751
     30 C         138.7926  142.9050  158.7940 C.3     1  UNL1        0.0594
     31 C         138.6268  142.6782  157.3206 C.3     1  UNL1        0.0174
     32 C         138.0625  141.3023  157.1240 C.3     1  UNL1        0.0174
     33 C         137.8796  140.6788  158.4759 C.3     1  UNL1        0.0594
     34 C         137.8063  140.3134  159.9390 C.3     1  UNL1        0.0386
     35 C         138.2904  141.4006  160.8519 C.3     1  UNL1        0.0893
     36 C         138.7836  142.6964  160.2795 C.3     1  UNL1        0.0386
     37 N         138.2815  141.1920  162.3374 N.ar    1  UNL1       -0.3167
     38 C         138.0061  142.2413  163.3733 C.ar    1  UNL1        0.1207
     39 C         137.7278  143.5801  162.7569 C.3     1  UNL1        0.0718
     40 N         138.1008  141.5953  164.7238 N.ar    1  UNL1       -0.2309
     41 C         138.4346  140.1468  164.5224 C.ar    1  UNL1        0.0983
     42 C         138.6513  139.0227  165.4916 C.ar    1  UNL1        0.0206
     43 C         138.9797  137.6493  164.9858 C.ar    1  UNL1        0.0016
     44 C         139.0914  137.4000  163.5108 C.ar    1  UNL1        0.0016
     45 C         138.8747  138.5242  162.5417 C.ar    1  UNL1        0.0188
     46 C         138.5463  139.8976  163.0475 C.ar    1  UNL1        0.0785
@<TRIPOS>BOND
     1    18    19    1
     2    19    15    1
     3    15    16    2
     4    15    17    2
     5    15     9    1
     6     9    10   ar
     7    10    11   ar
     8    11    12   ar
     9    12    13   ar
    10    13     1    1
    11     1     2    2
    12     1     3   am
    13     3     4    1
    14     4     5    1
    15     5     6    1
    16     6    27    1
    17    27    28    1
    18    28    29    1
    19    29    30    1
    20    30    31    1
    21    31    32    1
    22    32    33    1
    23    33    34    1
    24    34    35    1
    25    35    37    1
    26    37    38   ar
    27    38    39    1
    28    38    40   ar
    29    40    41   ar
    30    41    42   ar
    31    42    43   ar
    32    43    44   ar
    33    44    45   ar
    34    45    46   ar
    35    35    36    1
    36     6    21    1
    37    21    22   ar
    38    22    23   ar
    39    23    24   ar
    40    24    25   ar
    41    25    26   ar
    42     6     7    1
    43     7     8    1
    44    13    14   ar
    45    14     9   ar
    46     8     3    1
    47    33    29    1
    48    46    37   ar
    49    26    21   ar
    50    36    30    1
    51    46    41   ar
    52    19    20    1
@<TRIPOS>MOLECULE
*****
 46 52 0 0 0
SMALL
GASTEIGER

@<TRIPOS>ATOM
      1 C         143.0388  139.0621  157.7054 C.2     1  UNL1        0.2491
      2 O         144.4099  139.5227  157.3080 O.2     1  UNL1       -0.2699
      3 N         142.3094  139.7523  158.8197 N.am    1  UNL1       -0.2761
      4 C         142.9510  140.9030  159.5366 C.3     1  UNL1        0.0940
      5 C         142.2217  141.5931  160.6509 C.3     1  UNL1        0.0257
      6 C         140.8505  141.1326  161.0483 C.3     1  UNL1        0.0235
      7 C         140.2088  139.9818  160.3313 C.3     1  UNL1        0.0257
      8 C         140.9382  139.2917  159.2170 C.3     1  UNL1        0.0940
      9 C         140.5601  136.9952  155.3958 C.ar    1  UNL1        0.1221
     10 C         141.1134  135.6101  155.5545 C.ar    1  UNL1        0.0199
     11 C         142.3085  135.3756  156.4302 C.ar    1  UNL1        0.0015
     12 C         142.9503  136.5262  157.1471 C.ar    1  UNL1        0.0046
     13 C         142.3970  137.9114  156.9884 C.ar    1  UNL1        0.0549
     14 C         141.2019  138.1459  156.1128 C.ar    1  UNL1        0.0244
     15 S         139.3650  137.2297  154.5203 S.O2    1  UNL1        0.0603
     16 O         140.2713  137.5075  153.3577 O.2     1  UNL1       -0.1530
     17 O         138.4587  136.9518  155.6828 O.2     1  UNL1       -0.1530
     18 C         136.8582  137.8590  154.2559 C.3     1  UNL1        0.1102
     19 N         138.1699  137.4641  153.6446 N.3     1  UNL1       -0.1779
     20 H         138.4247  138.2042  152.9906 H       1  UNL1        0.1488
     21 C         141.0388  142.2593  162.0205 C.ar    1  UNL1       -0.0226
     22 C         141.2828  141.9654  163.4710 C.ar    1  UNL1       -0.0043
     23 C         141.4711  143.0921  164.4432 C.ar    1  UNL1       -0.0003
     24 C         141.4153  144.5127  163.9648 C.ar    1  UNL1       -0.0000
     25 C         141.1712  144.8065  162.5142 C.ar    1  UNL1       -0.0003
     26 C         140.9830  143.6798  161.5421 C.ar    1  UNL1       -0.0043
     27 C         139.5448  141.0633  161.7832 C.3     1  UNL1        0.0215
     28 C         138.2693  141.4268  161.0823 C.3     1  UNL1        0.0723
     29 N         138.2594  141.6187  159.5948 N.3     1  UNL1       -0.2751
     30 C         138.7127  142.8460  158.8610 C.3     1  UNL1        0.0594
     31 C         138.5279  142.6028  157.3924 C.3     1  UNL1        0.0174
     32 C         137.9604  141.2252  157.2185 C.3     1  UNL1        0.0174
     33 C         137.7945  140.6170  158.5796 C.3     1  UNL1        0.0594
     34 C         137.7397  140.2681  160.0474 C.3     1  UNL1        0.0386
     35 C         138.2361  141.3650  160.9419 C.3     1  UNL1        0.0893
     36 C         138.7226  142.6541  160.3486 C.3     1  UNL1        0.0386
     37 N         138.2461  141.1732  162.4295 N.ar    1  UNL1       -0.3167
     38 C         137.9918  142.2357  163.4573 C.ar    1  UNL1        0.1207
     39 C         137.7139  143.5694  162.8296 C.3     1  UNL1        0.0718
     40 N         138.1006  141.6043  164.8135 N.ar    1  UNL1       -0.2309
     41 C         138.4221  140.1514  164.6240 C.ar    1  UNL1        0.0983
     42 C         138.6447  139.0367  165.6026 C.ar    1  UNL1        0.0206
     43 C         138.9571  137.6556  165.1079 C.ar    1  UNL1        0.0016
     44 C         139.0469  137.3891  163.6345 C.ar    1  UNL1        0.0016
     45 C         138.8244  138.5038  162.6558 C.ar    1  UNL1        0.0188
     46 C         138.5120  139.8850  163.1505 C.ar    1  UNL1        0.0785
@<TRIPOS>BOND
     1    18    19    1
     2    19    15    1
     3    15    16    2
     4    15    17    2
     5    15     9    1
     6     9    10   ar
     7    10    11   ar
     8    11    12   ar
     9    12    13   ar
    10    13     1    1
    11     1     2    2
    12     1     3   am
    13     3     4    1
    14     4     5    1
    15     5     6    1
    16     6    27    1
    17    27    28    1
    18    28    29    1
    19    29    30    1
    20    30    31    1
    21    31    32    1
    22    32    33    1
    23    33    34    1
    24    34    35    1
    25    35    37    1
    26    37    38   ar
    27    38    39    1
    28    38    40   ar
    29    40    41   ar
    30    41    42   ar
    31    42    43   ar
    32    43    44   ar
    33    44    45   ar
    34    45    46   ar
    35    35    36    1
    36     6    21    1
    37    21    22   ar
    38    22    23   ar
    39    23    24   ar
    40    24    25   ar
    41    25    26   ar
    42     6     7    1
    43     7     8    1
    44    13    14   ar
    45    14     9   ar
    46     8     3    1
    47    33    29    1
    48    46    37   ar
    49    26    21   ar
    50    36    30    1
    51    46    41   ar
    52    19    20    1
@<TRIPOS>MOLECULE
*****
 46 52 0 0 0
SMALL
GASTEIGER

@<TRIPOS>ATOM
      1 C         143.5163  138.7949  166.7326 C.2     1  UNL1        0.2491
      2 O         144.7201  137.9158  166.5654 O.2     1  UNL1       -0.2699
      3 N         142.7460  139.2488  165.5281 N.am    1  UNL1       -0.2761
      4 C         143.1795  138.8236  164.1565 C.3     1  UNL1        0.0940
      5 C         142.4092  139.2775  162.9522 C.3     1  UNL1        0.0257
      6 C         141.2053  140.1566  163.1193 C.3     1  UNL1        0.0235
      7 C         140.7718  140.5818  164.4909 C.3     1  UNL1        0.0257
      8 C         141.5421  140.1279  165.6953 C.3     1  UNL1        0.0940
      9 C         142.3055  141.0810  169.7421 C.ar    1  UNL1        0.1221
     10 C         142.2154  140.0707  170.8472 C.ar    1  UNL1        0.0199
     11 C         142.5589  138.6351  170.5807 C.ar    1  UNL1        0.0015
     12 C         142.9925  138.2098  169.2092 C.ar    1  UNL1        0.0046
     13 C         143.0827  139.2201  168.1041 C.ar    1  UNL1        0.0549
     14 C         142.7392  140.6557  168.3706 C.ar    1  UNL1        0.0244
     15 S         141.9620  142.5166  170.0086 S.O2    1  UNL1        0.0603
     16 O         140.5605  142.1156  170.3622 O.2     1  UNL1       -0.1530
     17 O         143.3636  142.9176  169.6551 O.2     1  UNL1       -0.1530
     18 C         140.2145  144.4382  170.0692 C.3     1  UNL1        0.1102
     19 N         141.6186  143.9522  170.2751 N.3     1  UNL1       -0.1779
     20 H         141.8532  144.1349  171.2508 H       1  UNL1        0.1488
     21 C         141.2230  140.0202  161.6255 C.ar    1  UNL1       -0.0226
     22 C         141.6878  141.1638  160.7735 C.ar    1  UNL1       -0.0043
     23 C         141.7054  141.0275  159.2797 C.ar    1  UNL1       -0.0003
     24 C         141.2582  139.7474  158.6382 C.ar    1  UNL1       -0.0000
     25 C         140.7934  138.6038  159.4904 C.ar    1  UNL1       -0.0003
     26 C         140.7758  138.7403  160.9841 C.ar    1  UNL1       -0.0043
     27 C         140.0077  140.9883  162.7677 C.3     1  UNL1        0.0215
     28 C         138.6388  140.5522  163.1991 C.3     1  UNL1        0.0723
     29 N         138.4853  139.4632  164.2191 N.3     1  UNL1       -0.2751
     30 C         138.6763  137.9952  163.9771 C.3     1  UNL1        0.0594
     31 C         138.4229  137.2756  165.2687 C.3     1  UNL1        0.0174
     32 C         138.0753  138.2989  166.3089 C.3     1  UNL1        0.0174
     33 C         138.1139  139.6509  165.6603 C.3     1  UNL1        0.0594
     34 C         138.2278  140.8566  164.7588 C.3     1  UNL1        0.0386
     35 C         138.6055  140.5150  163.3479 C.3     1  UNL1        0.0893
     36 C         138.8298  139.0842  162.9571 C.3     1  UNL1        0.0386
     37 N         138.7590  141.6040  162.3279 N.ar    1  UNL1       -0.3167
     38 C         138.2933  141.5495  160.9031 C.ar    1  UNL1        0.1207
     39 C         137.6292  140.2442  160.5786 C.3     1  UNL1        0.0718
     40 N         138.6516  142.8505  160.2482 N.ar    1  UNL1       -0.2309
     41 C         139.3388  143.7092  161.2683 C.ar    1  UNL1        0.0983
     42 C         139.9126  145.0930  161.1929 C.ar    1  UNL1        0.0206
     43 C         140.5528  145.7064  162.4028 C.ar    1  UNL1        0.0016
     44 C         140.6192  144.9359  163.6881 C.ar    1  UNL1        0.0016
     45 C         140.0453  143.5521  163.7635 C.ar    1  UNL1        0.0188
     46 C         139.4051  142.9388  162.5537 C.ar    1  UNL1        0.0785
@<TRIPOS>BOND
     1    18    19    1
     2    19    15    1
     3    15    16    2
     4    15    17    2
     5    15     9    1
     6     9    10   ar
     7    10    11   ar
     8    11    12   ar
     9    12    13   ar
    10    13     1    1
    11     1     2    2
    12     1     3   am
    13     3     4    1
    14     4     5    1
    15     5     6    1
    16     6    27    1
    17    27    28    1
    18    28    29    1
    19    29    30    1
    20    30    31    1
    21    31    32    1
    22    32    33    1
    23    33    34    1
    24    34    35    1
    25    35    37    1
    26    37    38   ar
    27    38    39    1
    28    38    40   ar
    29    40    41   ar
    30    41    42   ar
    31    42    43   ar
    32    43    44   ar
    33    44    45   ar
    34    45    46   ar
    35    35    36    1
    36     6    21    1
    37    21    22   ar
    38    22    23   ar
    39    23    24   ar
    40    24    25   ar
    41    25    26   ar
    42     6     7    1
    43     7     8    1
    44    13    14   ar
    45    14     9   ar
    46     8     3    1
    47    33    29    1
    48    46    37   ar
    49    26    21   ar
    50    36    30    1
    51    46    41   ar
    52    19    20    1
@<TRIPOS>MOLECULE
*****
 46 52 0 0 0
SMALL
GASTEIGER

@<TRIPOS>ATOM
      1 C         139.8023  139.6148  157.2960 C.2     1  UNL1        0.2491
      2 O         138.4193  139.2593  156.8368 O.2     1  UNL1       -0.2699
      3 N         139.9964  140.3671  158.5792 N.am    1  UNL1       -0.2761
      4 C         138.8074  140.7637  159.4032 C.3     1  UNL1        0.0940
      5 C         139.0014  141.5159  160.6863 C.3     1  UNL1        0.0257
      6 C         140.3844  141.8715  161.1455 C.3     1  UNL1        0.0235
      7 C         141.5734  141.4748  160.3215 C.3     1  UNL1        0.0257
      8 C         141.3794  140.7226  159.0384 C.3     1  UNL1        0.0940
      9 C         142.8143  137.4763  155.8452 C.ar    1  UNL1        0.1221
     10 C         143.3694  138.4247  154.8243 C.ar    1  UNL1        0.0199
     11 C         142.7356  139.7699  154.6273 C.ar    1  UNL1        0.0015
     12 C         141.5465  140.1666  155.4512 C.ar    1  UNL1        0.0046
     13 C         140.9914  139.2182  156.4721 C.ar    1  UNL1        0.0549
     14 C         141.6252  137.8730  156.6691 C.ar    1  UNL1        0.0244
     15 S         143.4481  136.1312  156.0421 S.O2    1  UNL1        0.0603
     16 O         144.7668  136.6867  155.5922 O.2     1  UNL1       -0.1530
     17 O         142.1294  135.5756  156.4921 O.2     1  UNL1       -0.1530
     18 C         143.7554  133.9742  157.4575 C.3     1  UNL1        0.1102
     19 N         144.0820  134.7860  156.2391 N.3     1  UNL1       -0.1779
     20 H         143.8269  134.2191  155.4305 H       1  UNL1        0.1488
     21 C         139.5785  142.4630  162.2639 C.ar    1  UNL1       -0.0226
     22 C         138.7266  143.6725  162.0162 C.ar    1  UNL1       -0.0043
     23 C         137.9206  144.2640  163.1346 C.ar    1  UNL1       -0.0003
     24 C         137.9667  143.6459  164.5006 C.ar    1  UNL1       -0.0000
     25 C         138.8186  142.4363  164.7482 C.ar    1  UNL1       -0.0003
     26 C         139.6245  141.8449  163.6298 C.ar    1  UNL1       -0.0043
     27 C         141.4875  142.4324  161.9931 C.3     1  UNL1        0.0215
     28 C         142.2636  143.6260  161.5205 C.3     1  UNL1        0.0723
     29 N         142.0456  144.1625  160.1369 N.3     1  UNL1       -0.2751
     30 C         140.9541  145.1020  159.7173 C.3     1  UNL1        0.0594
     31 C         141.1147  145.3739  158.2509 C.3     1  UNL1        0.0174
     32 C         142.3056  144.6025  157.7642 C.3     1  UNL1        0.0174
     33 C         142.8809  143.8538  158.9298 C.3     1  UNL1        0.0594
     34 C         143.2346  143.2293  160.2580 C.3     1  UNL1        0.0386
     35 C         142.3124  143.6290  161.3714 C.3     1  UNL1        0.0893
     36 C         141.1720  144.5654  161.1010 C.3     1  UNL1        0.0386
     37 N         142.5304  143.0925  162.7551 N.ar    1  UNL1       -0.3167
     38 C         142.1935  143.7956  164.0365 C.ar    1  UNL1        0.1207
     39 C         141.5905  145.1474  163.7940 C.3     1  UNL1        0.0718
     40 N         142.5784  142.8962  165.1736 N.ar    1  UNL1       -0.2309
     41 C         143.1532  141.6374  164.5949 C.ar    1  UNL1        0.0983
     42 C         143.6998  140.3963  165.2360 C.ar    1  UNL1        0.0206
     43 C         144.2167  139.2766  164.3822 C.ar    1  UNL1        0.0016
     44 C         144.1870  139.3979  162.8874 C.ar    1  UNL1        0.0016
     45 C         143.6404  140.6389  162.2464 C.ar    1  UNL1        0.0188
     46 C         143.1235  141.7587  163.1002 C.ar    1  UNL1        0.0785
@<TRIPOS>BOND
     1    18    19    1
     2    19    15    1
     3    15    16    2
     4    15    17    2
     5    15     9    1
     6     9    10   ar
     7    10    11   ar
     8    11    12   ar
     9    12    13   ar
    10    13     1    1
    11     1     2    2
    12     1     3   am
    13     3     4    1
    14     4     5    1
    15     5     6    1
    16     6    27    1
    17    27    28    1
    18    28    29    1
    19    29    30    1
    20    30    31    1
    21    31    32    1
    22    32    33    1
    23    33    34    1
    24    34    35    1
    25    35    37    1
    26    37    38   ar
    27    38    39    1
    28    38    40   ar
    29    40    41   ar
    30    41    42   ar
    31    42    43   ar
    32    43    44   ar
    33    44    45   ar
    34    45    46   ar
    35    35    36    1
    36     6    21    1
    37    21    22   ar
    38    22    23   ar
    39    23    24   ar
    40    24    25   ar
    41    25    26   ar
    42     6     7    1
    43     7     8    1
    44    13    14   ar
    45    14     9   ar
    46     8     3    1
    47    33    29    1
    48    46    37   ar
    49    26    21   ar
    50    36    30    1
    51    46    41   ar
    52    19    20    1
@<TRIPOS>MOLECULE
*****
 46 52 0 0 0
SMALL
GASTEIGER

@<TRIPOS>ATOM
      1 C         138.6374  139.1714  166.5970 C.2     1  UNL1        0.2491
      2 O         137.6882  138.0190  166.4520 O.2     1  UNL1       -0.2699
      3 N         139.1457  139.8824  165.3779 N.am    1  UNL1       -0.2761
      4 C         138.7047  139.4411  164.0138 C.3     1  UNL1        0.0940
      5 C         139.2129  140.1520  162.7948 C.3     1  UNL1        0.0257
      6 C         140.1621  141.3045  162.9397 C.3     1  UNL1        0.0235
      7 C         140.6031  141.7459  164.3038 C.3     1  UNL1        0.0257
      8 C         140.0948  141.0348  165.5229 C.3     1  UNL1        0.0940
      9 C         140.9540  140.4198  169.5677 C.ar    1  UNL1        0.1221
     10 C         139.9607  140.4958  170.6891 C.ar    1  UNL1        0.0199
     11 C         138.5262  140.1303  170.4465 C.ar    1  UNL1        0.0015
     12 C         138.0851  139.6889  169.0825 C.ar    1  UNL1        0.0046
     13 C         139.0784  139.6129  167.9611 C.ar    1  UNL1        0.0549
     14 C         140.5129  139.9783  168.2037 C.ar    1  UNL1        0.0244
     15 S         142.3883  140.7852  169.8104 S.O2    1  UNL1        0.0603
     16 O         142.0043  142.2324  169.9010 O.2     1  UNL1       -0.1530
     17 O         142.7724  139.3380  169.7198 O.2     1  UNL1       -0.1530
     18 C         144.2625  142.5801  169.9374 C.3     1  UNL1        0.1102
     19 N         143.8228  141.1506  170.0531 N.3     1  UNL1       -0.1779
     20 H         144.0470  140.8494  171.0015 H       1  UNL1        0.1488
     21 C         140.0355  141.2576  161.4457 C.ar    1  UNL1       -0.0226
     22 C         138.7431  141.6446  160.7901 C.ar    1  UNL1       -0.0043
     23 C         138.6165  141.5978  159.2962 C.ar    1  UNL1       -0.0003
     24 C         139.7823  141.1639  158.4580 C.ar    1  UNL1       -0.0000
     25 C         141.0747  140.7769  159.1137 C.ar    1  UNL1       -0.0003
     26 C         141.2012  140.8238  160.6076 C.ar    1  UNL1       -0.0043
     27 C         141.0673  142.4405  162.5659 C.3     1  UNL1        0.0215
     28 C         140.6568  143.8537  162.8570 C.3     1  UNL1        0.0723
     29 N         139.4034  144.1255  163.6346 N.3     1  UNL1       -0.2751
     30 C         138.0025  144.0505  163.1035 C.3     1  UNL1        0.0594
     31 C         137.0639  144.3988  164.2205 C.3     1  UNL1        0.0174
     32 C         137.8847  144.6891  165.4421 C.3     1  UNL1        0.0174
     33 C         139.3305  144.5202  165.0800 C.3     1  UNL1        0.0594
     34 C         140.6776  144.2814  164.4416 C.3     1  UNL1        0.0386
     35 C         140.5937  143.8941  162.9949 C.3     1  UNL1        0.0893
     36 C         139.2560  143.7786  162.3259 C.3     1  UNL1        0.0386
     37 N         141.8472  143.6222  162.2173 N.ar    1  UNL1       -0.3167
     38 C         142.0788  143.9557  160.7733 C.ar    1  UNL1        0.1207
     39 C         140.8848  144.6169  160.1509 C.3     1  UNL1        0.0718
     40 N         143.4639  143.5087  160.4107 N.ar    1  UNL1       -0.2309
     41 C         144.0885  142.8990  161.6306 C.ar    1  UNL1        0.0983
     42 C         145.4379  142.2889  161.8690 C.ar    1  UNL1        0.0206
     43 C         145.7881  141.7491  163.2239 C.ar    1  UNL1        0.0016
     44 C         144.7889  141.8192  164.3405 C.ar    1  UNL1        0.0016
     45 C         143.4395  142.4292  164.1021 C.ar    1  UNL1        0.0188
     46 C         143.0893  142.9691  162.7472 C.ar    1  UNL1        0.0785
@<TRIPOS>BOND
     1    18    19    1
     2    19    15    1
     3    15    16    2
     4    15    17    2
     5    15     9    1
     6     9    10   ar
     7    10    11   ar
     8    11    12   ar
     9    12    13   ar
    10    13     1    1
    11     1     2    2
    12     1     3   am
    13     3     4    1
    14     4     5    1
    15     5     6    1
    16     6    27    1
    17    27    28    1
    18    28    29    1
    19    29    30    1
    20    30    31    1
    21    31    32    1
    22    32    33    1
    23    33    34    1
    24    34    35    1
    25    35    37    1
    26    37    38   ar
    27    38    39    1
    28    38    40   ar
    29    40    41   ar
    30    41    42   ar
    31    42    43   ar
    32    43    44   ar
    33    44    45   ar
    34    45    46   ar
    35    35    36    1
    36     6    21    1
    37    21    22   ar
    38    22    23   ar
    39    23    24   ar
    40    24    25   ar
    41    25    26   ar
    42     6     7    1
    43     7     8    1
    44    13    14   ar
    45    14     9   ar
    46     8     3    1
    47    33    29    1
    48    46    37   ar
    49    26    21   ar
    50    36    30    1
    51    46    41   ar
    52    19    20    1
@<TRIPOS>MOLECULE
*****
 46 52 0 0 0
SMALL
GASTEIGER

@<TRIPOS>ATOM
      1 C         139.3179  140.5922  158.2859 C.2     1  UNL1        0.2491
      2 O         138.3486  139.7175  157.5473 O.2     1  UNL1       -0.2699
      3 N         139.4779  140.4477  159.7703 N.am    1  UNL1       -0.2761
      4 C         138.6686  139.4285  160.5162 C.3     1  UNL1        0.0940
      5 C         138.8285  139.2840  162.0006 C.3     1  UNL1        0.0257
      6 C         139.7978  140.1586  162.7392 C.3     1  UNL1        0.0235
      7 C         140.6071  141.1778  161.9933 C.3     1  UNL1        0.0257
      8 C         140.4471  141.3223  160.5089 C.3     1  UNL1        0.0940
      9 C         140.5296  144.0742  156.8172 C.ar    1  UNL1        0.1221
     10 C         141.7457  143.6499  156.0485 C.ar    1  UNL1        0.0199
     11 C         142.1526  142.2063  156.0256 C.ar    1  UNL1        0.0015
     12 C         141.3433  141.1870  156.7714 C.ar    1  UNL1        0.0046
     13 C         140.1272  141.6114  157.5401 C.ar    1  UNL1        0.0549
     14 C         139.7203  143.0550  157.5630 C.ar    1  UNL1        0.0244
     15 S         140.1228  145.5178  156.8402 S.O2    1  UNL1        0.0603
     16 O         138.9235  145.1932  155.9996 O.2     1  UNL1       -0.1530
     17 O         141.3220  145.8424  157.6807 O.2     1  UNL1       -0.1530
     18 C         139.0147  147.5618  155.6809 C.3     1  UNL1        0.1102
     19 N         139.7159  146.9614  156.8631 N.3     1  UNL1       -0.1779
     20 H         139.0962  147.0799  157.6645 H       1  UNL1        0.1488
     21 C         139.2603  139.3450  163.8791 C.ar    1  UNL1       -0.0226
     22 C         138.4288  140.0004  164.9417 C.ar    1  UNL1       -0.0043
     23 C         137.8913  139.1868  166.0815 C.ar    1  UNL1       -0.0003
     24 C         138.1853  137.7179  166.1587 C.ar    1  UNL1       -0.0000
     25 C         139.0168  137.0626  165.0960 C.ar    1  UNL1       -0.0003
     26 C         139.5543  137.8763  163.9562 C.ar    1  UNL1       -0.0043
     27 C         140.5804  140.7507  163.8736 C.3     1  UNL1        0.0215
     28 C         142.0508  140.4790  163.9928 C.3     1  UNL1        0.0723
     29 N         142.7751  139.7722  162.8858 N.3     1  UNL1       -0.2751
     30 C         142.7789  138.2927  162.6383 C.3     1  UNL1        0.0594
     31 C         143.6290  138.0268  161.4313 C.3     1  UNL1        0.0174
     32 C         144.1505  139.3419  160.9328 C.3     1  UNL1        0.0174
     33 C         143.6228  140.4206  161.8317 C.3     1  UNL1        0.0594
     34 C         142.9579  141.2774  162.8820 C.3     1  UNL1        0.0386
     35 C         142.1441  140.4920  163.8673 C.3     1  UNL1        0.0893
     36 C         142.0546  138.9995  163.7454 C.3     1  UNL1        0.0386
     37 N         141.4198  141.1988  164.9744 N.ar    1  UNL1       -0.3167
     38 C         141.2958  140.7231  166.3915 C.ar    1  UNL1        0.1207
     39 C         141.9959  139.4144  166.6081 C.3     1  UNL1        0.0718
     40 N         140.4916  141.7358  167.1517 N.ar    1  UNL1       -0.2309
     41 C         140.1187  142.8374  166.2043 C.ar    1  UNL1        0.0983
     42 C         139.3308  144.0998  166.3932 C.ar    1  UNL1        0.0206
     43 C         139.1166  145.0303  165.2364 C.ar    1  UNL1        0.0016
     44 C         139.6903  144.6984  163.8907 C.ar    1  UNL1        0.0016
     45 C         140.4781  143.4360  163.7019 C.ar    1  UNL1        0.0188
     46 C         140.6923  142.5055  164.8587 C.ar    1  UNL1        0.0785
@<TRIPOS>BOND
     1    18    19    1
     2    19    15    1
     3    15    16    2
     4    15    17    2
     5    15     9    1
     6     9    10   ar
     7    10    11   ar
     8    11    12   ar
     9    12    13   ar
    10    13     1    1
    11     1     2    2
    12     1     3   am
    13     3     4    1
    14     4     5    1
    15     5     6    1
    16     6    27    1
    17    27    28    1
    18    28    29    1
    19    29    30    1
    20    30    31    1
    21    31    32    1
    22    32    33    1
    23    33    34    1
    24    34    35    1
    25    35    37    1
    26    37    38   ar
    27    38    39    1
    28    38    40   ar
    29    40    41   ar
    30    41    42   ar
    31    42    43   ar
    32    43    44   ar
    33    44    45   ar
    34    45    46   ar
    35    35    36    1
    36     6    21    1
    37    21    22   ar
    38    22    23   ar
    39    23    24   ar
    40    24    25   ar
    41    25    26   ar
    42     6     7    1
    43     7     8    1
    44    13    14   ar
    45    14     9   ar
    46     8     3    1
    47    33    29    1
    48    46    37   ar
    49    26    21   ar
    50    36    30    1
    51    46    41   ar
    52    19    20    1
@<TRIPOS>MOLECULE
*****
 46 52 0 0 0
SMALL
GASTEIGER

@<TRIPOS>ATOM
      1 C         141.7434  143.6417  160.7535 C.2     1  UNL1        0.2491
      2 O         141.8100  145.1296  160.5752 O.2     1  UNL1       -0.2699
      3 N         141.6977  143.0529  162.1323 N.am    1  UNL1       -0.2761
      4 C         141.7186  143.9519  163.3329 C.3     1  UNL1        0.0940
      5 C         141.6729  143.3631  164.7116 C.3     1  UNL1        0.0257
      6 C         141.6063  141.8751  164.8900 C.3     1  UNL1        0.0235
      7 C         141.5854  140.9761  163.6894 C.3     1  UNL1        0.0257
      8 C         141.6311  141.5650  162.3106 C.3     1  UNL1        0.0940
      9 C         142.9894  141.3474  157.7646 C.ar    1  UNL1        0.1221
     10 C         141.6808  140.9445  157.1519 C.ar    1  UNL1        0.0199
     11 C         140.3931  141.4407  157.7398 C.ar    1  UNL1        0.0015
     12 C         140.4139  142.3398  158.9403 C.ar    1  UNL1        0.0046
     13 C         141.7225  142.7427  159.5530 C.ar    1  UNL1        0.0549
     14 C         143.0102  142.2464  158.9651 C.ar    1  UNL1        0.0244
     15 S         144.2770  140.8511  157.1768 S.O2    1  UNL1        0.0603
     16 O         144.7556  142.2653  157.0313 O.2     1  UNL1       -0.1530
     17 O         143.7985  139.4369  157.3223 O.2     1  UNL1       -0.1530
     18 C         145.5501  139.5467  155.3254 C.3     1  UNL1        0.1102
     19 N         145.5647  140.3549  156.5890 N.3     1  UNL1       -0.1779
     20 H         146.1410  141.1764  156.4063 H       1  UNL1        0.1488
     21 C         141.6038  142.3099  166.3257 C.ar    1  UNL1       -0.0226
     22 C         142.8403  142.1509  167.1596 C.ar    1  UNL1       -0.0043
     23 C         142.8378  142.5857  168.5953 C.ar    1  UNL1       -0.0003
     24 C         141.5986  143.1795  169.1968 C.ar    1  UNL1       -0.0000
     25 C         140.3620  143.3385  168.3628 C.ar    1  UNL1       -0.0003
     26 C         140.3647  142.9037  166.9272 C.ar    1  UNL1       -0.0043
     27 C         141.5388  140.5383  165.5668 C.3     1  UNL1        0.0215
     28 C         140.2948  139.7066  165.4623 C.3     1  UNL1        0.0723
     29 N         139.2644  140.0261  164.4203 N.3     1  UNL1       -0.2751
     30 C         138.2323  141.1114  164.5045 C.3     1  UNL1        0.0594
     31 C         137.4150  141.0725  163.2472 C.3     1  UNL1        0.0174
     32 C         137.9420  139.9632  162.3860 C.3     1  UNL1        0.0174
     33 C         139.0849  139.3165  163.1109 C.3     1  UNL1        0.0594
     34 C         140.1755  138.8705  164.0549 C.3     1  UNL1        0.0386
     35 C         140.2345  139.6714  165.3217 C.3     1  UNL1        0.0893
     36 C         139.2628  140.7919  165.5466 C.3     1  UNL1        0.0386
     37 N         141.2650  139.3519  166.3638 N.ar    1  UNL1       -0.3167
     38 C         142.6392  138.8080  166.1073 C.ar    1  UNL1        0.1207
     39 C         142.8985  138.6042  164.6440 C.3     1  UNL1        0.0718
     40 N         143.3257  138.6402  167.4304 N.ar    1  UNL1       -0.2309
     41 C         142.3758  139.0802  168.5046 C.ar    1  UNL1        0.0983
     42 C         142.5060  139.1373  169.9978 C.ar    1  UNL1        0.0206
     43 C         141.3626  139.6342  170.8319 C.ar    1  UNL1        0.0016
     44 C         140.0890  140.0740  170.1727 C.ar    1  UNL1        0.0016
     45 C         139.9588  140.0170  168.6795 C.ar    1  UNL1        0.0188
     46 C         141.1022  139.5201  167.8455 C.ar    1  UNL1        0.0785
@<TRIPOS>BOND
     1    18    19    1
     2    19    15    1
     3    15    16    2
     4    15    17    2
     5    15     9    1
     6     9    10   ar
     7    10    11   ar
     8    11    12   ar
     9    12    13   ar
    10    13     1    1
    11     1     2    2
    12     1     3   am
    13     3     4    1
    14     4     5    1
    15     5     6    1
    16     6    27    1
    17    27    28    1
    18    28    29    1
    19    29    30    1
    20    30    31    1
    21    31    32    1
    22    32    33    1
    23    33    34    1
    24    34    35    1
    25    35    37    1
    26    37    38   ar
    27    38    39    1
    28    38    40   ar
    29    40    41   ar
    30    41    42   ar
    31    42    43   ar
    32    43    44   ar
    33    44    45   ar
    34    45    46   ar
    35    35    36    1
    36     6    21    1
    37    21    22   ar
    38    22    23   ar
    39    23    24   ar
    40    24    25   ar
    41    25    26   ar
    42     6     7    1
    43     7     8    1
    44    13    14   ar
    45    14     9   ar
    46     8     3    1
    47    33    29    1
    48    46    37   ar
    49    26    21   ar
    50    36    30    1
    51    46    41   ar
    52    19    20    1
@<TRIPOS>MOLECULE
*****
 46 52 0 0 0
SMALL
GASTEIGER

@<TRIPOS>ATOM
      1 C         139.8176  139.6670  158.1070 C.2     1  UNL1        0.2491
      2 O         138.8489  138.7305  157.4479 O.2     1  UNL1       -0.2699
      3 N         139.8861  139.7443  159.6034 N.am    1  UNL1       -0.2761
      4 C         138.9858  138.8850  160.4408 C.3     1  UNL1        0.0940
      5 C         139.0542  138.9622  161.9372 C.3     1  UNL1        0.0257
      6 C         140.0230  139.8988  162.5964 C.3     1  UNL1        0.0235
      7 C         140.9233  140.7580  161.7590 C.3     1  UNL1        0.0257
      8 C         140.8549  140.6808  160.2625 C.3     1  UNL1        0.0940
      9 C         143.0777  141.0569  156.3209 C.ar    1  UNL1        0.1221
     10 C         142.5188  142.2447  155.5952 C.ar    1  UNL1        0.0199
     11 C         141.0595  142.5733  155.7067 C.ar    1  UNL1        0.0015
     12 C         140.1591  141.7141  156.5440 C.ar    1  UNL1        0.0046
     13 C         140.7180  140.5263  157.2697 C.ar    1  UNL1        0.0549
     14 C         142.1773  140.1977  157.1582 C.ar    1  UNL1        0.0244
     15 S         144.5370  140.7283  156.2094 S.O2    1  UNL1        0.0603
     16 O         144.6401  141.5996  154.9926 O.2     1  UNL1       -0.1530
     17 O         144.4339  139.8571  157.4261 O.2     1  UNL1       -0.1530
     18 C         146.9203  141.3278  155.3665 C.3     1  UNL1        0.1102
     19 N         145.9963  140.3997  156.0978 N.3     1  UNL1       -0.1779
     20 H         146.3534  140.3185  157.0498 H       1  UNL1        0.1488
     21 C         139.3818  139.2915  163.8089 C.ar    1  UNL1       -0.0226
     22 C         139.6362  137.8534  164.1509 C.ar    1  UNL1       -0.0043
     23 C         138.9949  137.2461  165.3634 C.ar    1  UNL1       -0.0003
     24 C         138.0993  138.0770  166.2337 C.ar    1  UNL1       -0.0000
     25 C         137.8449  139.5152  165.8916 C.ar    1  UNL1       -0.0003
     26 C         138.4862  140.1223  164.6791 C.ar    1  UNL1       -0.0043
     27 C         140.7691  140.6243  163.6765 C.3     1  UNL1        0.0215
     28 C         142.2331  140.3678  163.8793 C.3     1  UNL1        0.0723
     29 N         143.0137  139.6172  162.8415 N.3     1  UNL1       -0.2751
     30 C         143.0190  138.1299  162.6467 C.3     1  UNL1        0.0594
     31 C         143.9348  137.8156  161.5011 C.3     1  UNL1        0.0174
     32 C         144.4955  139.1087  160.9877 C.3     1  UNL1        0.0174
     33 C         143.9263  140.2222  161.8161 C.3     1  UNL1        0.0594
     34 C         143.2095  141.1201  162.7954 C.3     1  UNL1        0.0386
     35 C         142.3335  140.3757  163.7589 C.3     1  UNL1        0.0893
     36 C         142.2383  138.8805  163.6846 C.3     1  UNL1        0.0386
     37 N         141.5528  141.1262  164.7968 N.ar    1  UNL1       -0.3167
     38 C         141.3494  140.7057  166.2221 C.ar    1  UNL1        0.1207
     39 C         142.0309  139.4047  166.5268 C.3     1  UNL1        0.0718
     40 N         140.5093  141.7487  166.8977 N.ar    1  UNL1       -0.2309
     41 C         140.1935  142.8139  165.8898 C.ar    1  UNL1        0.0983
     42 C         139.4021  144.0843  165.9867 C.ar    1  UNL1        0.0206
     43 C         139.2556  144.9701  164.7851 C.ar    1  UNL1        0.0016
     44 C         139.9005  144.5854  163.4866 C.ar    1  UNL1        0.0016
     45 C         140.6920  143.3149  163.3898 C.ar    1  UNL1        0.0188
     46 C         140.8385  142.4291  164.5914 C.ar    1  UNL1        0.0785
@<TRIPOS>BOND
     1    18    19    1
     2    19    15    1
     3    15    16    2
     4    15    17    2
     5    15     9    1
     6     9    10   ar
     7    10    11   ar
     8    11    12   ar
     9    12    13   ar
    10    13     1    1
    11     1     2    2
    12     1     3   am
    13     3     4    1
    14     4     5    1
    15     5     6    1
    16     6    27    1
    17    27    28    1
    18    28    29    1
    19    29    30    1
    20    30    31    1
    21    31    32    1
    22    32    33    1
    23    33    34    1
    24    34    35    1
    25    35    37    1
    26    37    38   ar
    27    38    39    1
    28    38    40   ar
    29    40    41   ar
    30    41    42   ar
    31    42    43   ar
    32    43    44   ar
    33    44    45   ar
    34    45    46   ar
    35    35    36    1
    36     6    21    1
    37    21    22   ar
    38    22    23   ar
    39    23    24   ar
    40    24    25   ar
    41    25    26   ar
    42     6     7    1
    43     7     8    1
    44    13    14   ar
    45    14     9   ar
    46     8     3    1
    47    33    29    1
    48    46    37   ar
    49    26    21   ar
    50    36    30    1
    51    46    41   ar
    52    19    20    1
@<TRIPOS>MOLECULE
*****
 46 52 0 0 0
SMALL
GASTEIGER

@<TRIPOS>ATOM
      1 C         139.9362  138.9880  164.8222 C.2     1  UNL1        0.2491
      2 O         138.9750  137.8370  164.7860 O.2     1  UNL1       -0.2699
      3 N         140.0888  139.8758  163.6229 N.am    1  UNL1       -0.2761
      4 C         139.2801  139.6127  162.3872 C.3     1  UNL1        0.0940
      5 C         139.4326  140.5005  161.1879 C.3     1  UNL1        0.0257
      6 C         140.3939  141.6515  161.2241 C.3     1  UNL1        0.0235
      7 C         141.2026  141.9146  162.4597 C.3     1  UNL1        0.0257
      8 C         141.0500  141.0268  163.6591 C.3     1  UNL1        0.0940
      9 C         140.9412  140.2507  168.4479 C.ar    1  UNL1        0.1221
     10 C         142.3623  139.7776  168.5291 C.ar    1  UNL1        0.0199
     11 C         142.9747  139.0412  167.3746 C.ar    1  UNL1        0.0015
     12 C         142.1661  138.7780  166.1390 C.ar    1  UNL1        0.0046
     13 C         140.7449  139.2511  166.0578 C.ar    1  UNL1        0.0549
     14 C         140.1325  139.9875  167.2123 C.ar    1  UNL1        0.0244
     15 S         140.3288  140.9869  169.6023 S.O2    1  UNL1        0.0603
     16 O         139.9302  139.6812  170.2238 O.2     1  UNL1       -0.1530
     17 O         140.7273  142.2928  168.9810 O.2     1  UNL1       -0.1530
     18 C         139.6014  143.2183  170.7167 C.3     1  UNL1        0.1102
     19 N         139.7164  141.7233  170.7568 N.3     1  UNL1       -0.1779
     20 H         138.7708  141.3582  170.8706 H       1  UNL1        0.1488
     21 C         139.8538  141.8068  159.8333 C.ar    1  UNL1       -0.0226
     22 C         140.6948  141.4164  158.6542 C.ar    1  UNL1       -0.0043
     23 C         140.1547  141.5717  157.2634 C.ar    1  UNL1       -0.0003
     24 C         138.7736  142.1175  157.0518 C.ar    1  UNL1       -0.0000
     25 C         137.9326  142.5079  158.2309 C.ar    1  UNL1       -0.0003
     26 C         138.4728  142.3525  159.6217 C.ar    1  UNL1       -0.0043
     27 C         141.1675  142.8563  160.7774 C.3     1  UNL1        0.0215
     28 C         140.9073  144.1916  161.4095 C.3     1  UNL1        0.0723
     29 N         140.0615  144.2846  162.6447 N.3     1  UNL1       -0.2751
     30 C         138.5656  144.1877  162.6983 C.3     1  UNL1        0.0594
     31 C         138.1426  144.3340  164.1300 C.3     1  UNL1        0.0174
     32 C         139.3771  144.5214  164.9612 C.3     1  UNL1        0.0174
     33 C         140.5630  144.4908  164.0433 C.3     1  UNL1        0.0594
     34 C         141.5496  144.4191  162.9028 C.3     1  UNL1        0.0386
     35 C         140.9035  144.2104  161.5653 C.3     1  UNL1        0.0893
     36 C         139.4114  144.0947  161.4631 C.3     1  UNL1        0.0386
     37 N         141.7494  144.1174  160.3300 N.ar    1  UNL1       -0.3167
     38 C         143.1171  143.5078  160.2418 C.ar    1  UNL1        0.1207
     39 C         143.5813  142.9754  161.5651 C.3     1  UNL1        0.0718
     40 N         143.5890  143.6314  158.8234 N.ar    1  UNL1       -0.2309
     41 C         142.5129  144.3173  158.0349 C.ar    1  UNL1        0.0983
     42 C         142.4215  144.7072  156.5894 C.ar    1  UNL1        0.0206
     43 C         141.1932  145.3975  156.0750 C.ar    1  UNL1        0.0016
     44 C         140.0562  145.6979  157.0062 C.ar    1  UNL1        0.0016
     45 C         140.1476  145.3080  158.4518 C.ar    1  UNL1        0.0188
     46 C         141.3760  144.6177  158.9661 C.ar    1  UNL1        0.0785
@<TRIPOS>BOND
     1    18    19    1
     2    19    15    1
     3    15    16    2
     4    15    17    2
     5    15     9    1
     6     9    10   ar
     7    10    11   ar
     8    11    12   ar
     9    12    13   ar
    10    13     1    1
    11     1     2    2
    12     1     3   am
    13     3     4    1
    14     4     5    1
    15     5     6    1
    16     6    27    1
    17    27    28    1
    18    28    29    1
    19    29    30    1
    20    30    31    1
    21    31    32    1
    22    32    33    1
    23    33    34    1
    24    34    35    1
    25    35    37    1
    26    37    38   ar
    27    38    39    1
    28    38    40   ar
    29    40    41   ar
    30    41    42   ar
    31    42    43   ar
    32    43    44   ar
    33    44    45   ar
    34    45    46   ar
    35    35    36    1
    36     6    21    1
    37    21    22   ar
    38    22    23   ar
    39    23    24   ar
    40    24    25   ar
    41    25    26   ar
    42     6     7    1
    43     7     8    1
    44    13    14   ar
    45    14     9   ar
    46     8     3    1
    47    33    29    1
    48    46    37   ar
    49    26    21   ar
    50    36    30    1
    51    46    41   ar
    52    19    20    1
