@<TRIPOS>MOLECULE
*****
 23 25 0 0 0
SMALL
GASTEIGER

@<TRIPOS>ATOM
      1 C         137.5948  138.5026  166.9955 C.3     1  UNL1        0.0522
      2 C         138.7653  138.5123  166.0576 C.ar    1  UNL1        0.0621
      3 C         139.0032  137.5467  164.9347 C.ar    1  UNL1        0.0337
      4 C         140.2884  137.9267  164.2609 C.ar    1  UNL1        0.1099
      5 N         140.8448  139.1272  164.9675 N.ar    1  UNL1       -0.1673
      6 N         139.9034  139.4891  166.0779 N.ar    1  UNL1       -0.2339
      7 C         140.0709  140.6279  167.0398 C.ar    1  UNL1        0.0833
      8 C         140.0754  142.0407  166.5359 C.ar    1  UNL1        0.0201
      9 C         140.2428  143.1795  167.4978 C.ar    1  UNL1        0.0138
     10 C         140.4057  142.9054  168.9635 C.ar    1  UNL1        0.0683
     11 CL        140.5732  144.0442  169.9254 Cl      1  UNL1       -0.0814
     12 C         140.4012  141.4926  169.4674 C.ar    1  UNL1        0.0697
     13 CL        140.5641  141.2186  170.9331 Cl      1  UNL1       -0.0813
     14 C         140.2338  140.3539  168.5055 C.ar    1  UNL1        0.0314
     15 C         140.9084  137.2289  163.0868 C.3     1  UNL1        0.1893
     16 O         140.4319  137.5316  161.6971 O.3     1  UNL1       -0.3458
     17 C         139.2507  138.4324  161.4888 C.3     1  UNL1        0.1600
     18 C         139.4608  139.8776  161.1464 C.3     1  UNL1        0.1046
     19 N         138.7526  140.9441  161.9281 N.3     1  UNL1       -0.2706
     20 C         138.0179  140.7486  163.2211 C.3     1  UNL1        0.0722
     21 C         137.4661  142.0771  163.6461 C.3     1  UNL1        0.0188
     22 C         137.8598  143.0936  162.6157 C.3     1  UNL1        0.0188
     23 C         138.6548  142.3934  161.5539 C.3     1  UNL1        0.0722
@<TRIPOS>BOND
     1     1     2    1
     2     2     3   ar
     3     3     4   ar
     4     4    15    1
     5    15    16    1
     6    16    17    1
     7    17    18    1
     8    18    19    1
     9    19    20    1
    10    20    21    1
    11    21    22    1
    12    22    23    1
    13     4     5   ar
    14     5     6   ar
    15     6     7    1
    16     7     8   ar
    17     8     9   ar
    18     9    10   ar
    19    10    11    1
    20    10    12   ar
    21    12    13    1
    22    12    14   ar
    23     6     2   ar
    24    14     7   ar
    25    23    19    1
@<TRIPOS>MOLECULE
*****
 23 25 0 0 0
SMALL
GASTEIGER

@<TRIPOS>ATOM
      1 C         138.2211  139.4695  165.8221 C.3     1  UNL1        0.0522
      2 C         138.5322  140.7529  165.1107 C.ar    1  UNL1        0.0621
      3 C         137.8141  141.2912  163.9089 C.ar    1  UNL1        0.0337
      4 C         138.4541  142.5944  163.5316 C.ar    1  UNL1        0.1099
      5 N         139.5678  142.8613  164.5003 N.ar    1  UNL1       -0.1673
      6 N         139.6161  141.7232  165.4762 N.ar    1  UNL1       -0.2339
      7 C         140.5792  141.5806  166.6174 C.ar    1  UNL1        0.0833
      8 C         141.5546  140.4412  166.6376 C.ar    1  UNL1        0.0201
      9 C         142.5177  140.2986  167.7787 C.ar    1  UNL1        0.0138
     10 C         142.5053  141.2954  168.8996 C.ar    1  UNL1        0.0683
     11 CL        143.4684  141.1527  170.0408 Cl      1  UNL1       -0.0814
     12 C         141.5299  142.4347  168.8794 C.ar    1  UNL1        0.0697
     13 CL        141.5175  143.4315  170.0003 Cl      1  UNL1       -0.0813
     14 C         140.5669  142.5773  167.7383 C.ar    1  UNL1        0.0314
     15 C         138.0512  143.4757  162.3867 C.3     1  UNL1        0.1893
     16 O         138.1882  144.9650  162.5023 O.3     1  UNL1       -0.3458
     17 C         139.4289  145.6450  162.0043 C.3     1  UNL1        0.1600
     18 C         140.5678  144.8289  161.4684 C.3     1  UNL1        0.1046
     19 N         141.8396  144.7090  162.2546 N.3     1  UNL1       -0.2706
     20 C         143.0595  143.9380  161.8456 C.3     1  UNL1        0.0722
     21 C         144.0887  144.0916  162.9260 C.3     1  UNL1        0.0188
     22 C         143.5048  144.9574  164.0027 C.3     1  UNL1        0.0188
     23 C         142.1148  145.3390  163.5877 C.3     1  UNL1        0.0722
@<TRIPOS>BOND
     1     1     2    1
     2     2     3   ar
     3     3     4   ar
     4     4    15    1
     5    15    16    1
     6    16    17    1
     7    17    18    1
     8    18    19    1
     9    19    20    1
    10    20    21    1
    11    21    22    1
    12    22    23    1
    13     4     5   ar
    14     5     6   ar
    15     6     7    1
    16     7     8   ar
    17     8     9   ar
    18     9    10   ar
    19    10    11    1
    20    10    12   ar
    21    12    13    1
    22    12    14   ar
    23     6     2   ar
    24    14     7   ar
    25    23    19    1
@<TRIPOS>MOLECULE
*****
 23 25 0 0 0
SMALL
GASTEIGER

@<TRIPOS>ATOM
      1 C         142.5637  140.8816  164.6500 C.3     1  UNL1        0.0522
      2 C         141.1132  141.1276  164.3576 C.ar    1  UNL1        0.0621
      3 C         140.4881  141.1987  162.9960 C.ar    1  UNL1        0.0337
      4 C         139.0216  141.4608  163.1723 C.ar    1  UNL1        0.1099
      5 N         138.7406  141.5517  164.6429 N.ar    1  UNL1       -0.1673
      6 N         140.0333  141.3458  165.3755 N.ar    1  UNL1       -0.2339
      7 C         140.2141  141.3562  166.8645 C.ar    1  UNL1        0.0833
      8 C         140.2635  140.0631  167.6231 C.ar    1  UNL1        0.0201
      9 C         140.4444  140.0735  169.1121 C.ar    1  UNL1        0.0138
     10 C         140.5759  141.3771  169.8425 C.ar    1  UNL1        0.0683
     11 CL        140.7568  141.3875  171.3316 Cl      1  UNL1       -0.0814
     12 C         140.5266  142.6702  169.0839 C.ar    1  UNL1        0.0697
     13 CL        140.6581  143.9737  169.8143 Cl      1  UNL1       -0.0813
     14 C         140.3457  142.6597  167.5949 C.ar    1  UNL1        0.0314
     15 C         138.0134  141.6064  162.0713 C.3     1  UNL1        0.1893
     16 O         137.9864  140.6178  160.9435 O.3     1  UNL1       -0.3458
     17 C         137.6928  139.1729  161.2195 C.3     1  UNL1        0.1600
     18 C         138.8122  138.1755  161.2650 C.3     1  UNL1        0.1046
     19 N         139.4952  137.8735  162.5658 N.3     1  UNL1       -0.2706
     20 C         140.9341  137.4856  162.7369 C.3     1  UNL1        0.0722
     21 C         141.1874  137.2787  164.2007 C.3     1  UNL1        0.0188
     22 C         139.9052  137.5386  164.9344 C.3     1  UNL1        0.0188
     23 C         138.8594  137.9062  163.9239 C.3     1  UNL1        0.0722
@<TRIPOS>BOND
     1     1     2    1
     2     2     3   ar
     3     3     4   ar
     4     4    15    1
     5    15    16    1
     6    16    17    1
     7    17    18    1
     8    18    19    1
     9    19    20    1
    10    20    21    1
    11    21    22    1
    12    22    23    1
    13     4     5   ar
    14     5     6   ar
    15     6     7    1
    16     7     8   ar
    17     8     9   ar
    18     9    10   ar
    19    10    11    1
    20    10    12   ar
    21    12    13    1
    22    12    14   ar
    23     6     2   ar
    24    14     7   ar
    25    23    19    1
@<TRIPOS>MOLECULE
*****
 23 25 0 0 0
SMALL
GASTEIGER

@<TRIPOS>ATOM
      1 C         139.0630  144.7392  164.9384 C.3     1  UNL1        0.0522
      2 C         140.3913  144.1778  164.5255 C.ar    1  UNL1        0.0621
      3 C         141.5110  144.9429  163.8845 C.ar    1  UNL1        0.0337
      4 C         142.6449  143.9908  163.6438 C.ar    1  UNL1        0.1099
      5 N         142.2258  142.6372  164.1360 N.ar    1  UNL1       -0.1673
      6 N         140.8331  142.7528  164.6809 N.ar    1  UNL1       -0.2339
      7 C         140.0241  141.6389  165.2767 C.ar    1  UNL1        0.0833
      8 C         139.1144  140.8239  164.4060 C.ar    1  UNL1        0.0201
      9 C         138.3055  139.7101  165.0018 C.ar    1  UNL1        0.0138
     10 C         138.4064  139.4112  166.4683 C.ar    1  UNL1        0.0683
     11 CL        137.5974  138.2973  167.0641 Cl      1  UNL1       -0.0814
     12 C         139.3161  140.2262  167.3390 C.ar    1  UNL1        0.0697
     13 CL        139.4170  139.9273  168.8054 Cl      1  UNL1       -0.0813
     14 C         140.1250  141.3400  166.7432 C.ar    1  UNL1        0.0314
     15 C         143.9657  144.3322  163.0204 C.3     1  UNL1        0.1893
     16 O         144.6235  143.3660  162.0802 O.3     1  UNL1       -0.3458
     17 C         145.2501  142.1111  162.6117 C.3     1  UNL1        0.1600
     18 C         144.7054  140.7725  162.2100 C.3     1  UNL1        0.1046
     19 N         143.9547  139.9387  163.2056 N.3     1  UNL1       -0.2706
     20 C         142.6297  139.2737  162.9780 C.3     1  UNL1        0.0722
     21 C         142.2534  138.5476  164.2354 C.3     1  UNL1        0.0188
     22 C         143.3459  138.7638  165.2401 C.3     1  UNL1        0.0188
     23 C         144.3974  139.6236  164.6037 C.3     1  UNL1        0.0722
@<TRIPOS>BOND
     1     1     2    1
     2     2     3   ar
     3     3     4   ar
     4     4    15    1
     5    15    16    1
     6    16    17    1
     7    17    18    1
     8    18    19    1
     9    19    20    1
    10    20    21    1
    11    21    22    1
    12    22    23    1
    13     4     5   ar
    14     5     6   ar
    15     6     7    1
    16     7     8   ar
    17     8     9   ar
    18     9    10   ar
    19    10    11    1
    20    10    12   ar
    21    12    13    1
    22    12    14   ar
    23     6     2   ar
    24    14     7   ar
    25    23    19    1
@<TRIPOS>MOLECULE
*****
 23 25 0 0 0
SMALL
GASTEIGER

@<TRIPOS>ATOM
      1 C         141.0631  136.9633  164.5327 C.3     1  UNL1        0.0522
      2 C         140.1421  138.0868  164.1591 C.ar    1  UNL1        0.0621
      3 C         139.3954  138.2214  162.8651 C.ar    1  UNL1        0.0337
      4 C         138.5979  139.4907  162.9201 C.ar    1  UNL1        0.1099
      5 N         138.8518  140.1405  164.2480 N.ar    1  UNL1       -0.1673
      6 N         139.8062  139.2728  165.0137 N.ar    1  UNL1       -0.2339
      7 C         140.3322  139.5436  166.3921 C.ar    1  UNL1        0.0833
      8 C         141.8096  139.5164  166.6498 C.ar    1  UNL1        0.0201
      9 C         142.3356  139.7873  168.0282 C.ar    1  UNL1        0.0138
     10 C         141.3842  140.0853  169.1489 C.ar    1  UNL1        0.0683
     11 CL        141.9102  140.3562  170.5273 Cl      1  UNL1       -0.0814
     12 C         139.9067  140.1125  168.8912 C.ar    1  UNL1        0.0697
     13 CL        138.9553  140.4105  170.0119 Cl      1  UNL1       -0.0813
     14 C         139.3808  139.8417  167.5128 C.ar    1  UNL1        0.0314
     15 C         137.7036  140.0177  161.8373 C.3     1  UNL1        0.1893
     16 O         137.3208  141.4679  161.8202 O.3     1  UNL1       -0.3458
     17 C         138.2891  142.4932  161.3093 C.3     1  UNL1        0.1600
     18 C         138.6638  143.6645  162.1682 C.3     1  UNL1        0.1046
     19 N         139.3924  143.4442  163.4607 N.3     1  UNL1       -0.2706
     20 C         138.8041  143.5616  164.8355 C.3     1  UNL1        0.0722
     21 C         139.8854  143.2578  165.8298 C.3     1  UNL1        0.0188
     22 C         141.1419  142.9526  165.0695 C.3     1  UNL1        0.0188
     23 C         140.8372  143.0679  163.6054 C.3     1  UNL1        0.0722
@<TRIPOS>BOND
     1     1     2    1
     2     2     3   ar
     3     3     4   ar
     4     4    15    1
     5    15    16    1
     6    16    17    1
     7    17    18    1
     8    18    19    1
     9    19    20    1
    10    20    21    1
    11    21    22    1
    12    22    23    1
    13     4     5   ar
    14     5     6   ar
    15     6     7    1
    16     7     8   ar
    17     8     9   ar
    18     9    10   ar
    19    10    11    1
    20    10    12   ar
    21    12    13    1
    22    12    14   ar
    23     6     2   ar
    24    14     7   ar
    25    23    19    1
@<TRIPOS>MOLECULE
*****
 23 25 0 0 0
SMALL
GASTEIGER

@<TRIPOS>ATOM
      1 C         143.8546  139.3424  165.0863 C.3     1  UNL1        0.0522
      2 C         143.2648  140.4199  164.2253 C.ar    1  UNL1        0.0621
      3 C         144.0212  141.3076  163.2821 C.ar    1  UNL1        0.0337
      4 C         143.0390  142.2352  162.6302 C.ar    1  UNL1        0.1099
      5 N         141.6755  141.9208  163.1707 N.ar    1  UNL1       -0.1673
      6 N         141.8151  140.7988  164.1565 N.ar    1  UNL1       -0.2339
      7 C         140.7006  140.1668  164.9366 C.ar    1  UNL1        0.0833
      8 C         139.7375  139.2418  164.2534 C.ar    1  UNL1        0.0201
      9 C         138.6231  138.6098  165.0334 C.ar    1  UNL1        0.0138
     10 C         138.4716  138.9029  166.4967 C.ar    1  UNL1        0.0683
     11 CL        137.3571  138.2708  167.2768 Cl      1  UNL1       -0.0814
     12 C         139.4347  139.8279  167.1799 C.ar    1  UNL1        0.0697
     13 CL        139.2833  140.1209  168.6432 Cl      1  UNL1       -0.0813
     14 C         140.5491  140.4598  166.3999 C.ar    1  UNL1        0.0314
     15 C         143.3633  143.2918  161.6161 C.3     1  UNL1        0.1893
     16 O         142.6156  144.5921  161.6224 O.3     1  UNL1       -0.3458
     17 C         141.2513  144.6759  161.0047 C.3     1  UNL1        0.1600
     18 C         140.1751  145.4820  161.6696 C.3     1  UNL1        0.1046
     19 N         139.5168  144.9703  162.9165 N.3     1  UNL1       -0.2706
     20 C         140.1419  144.8998  164.2782 C.3     1  UNL1        0.0722
     21 C         139.1293  144.3252  165.2239 C.3     1  UNL1        0.0188
     22 C         137.8784  144.0406  164.4467 C.3     1  UNL1        0.0188
     23 C         138.1179  144.4392  163.0207 C.3     1  UNL1        0.0722
@<TRIPOS>BOND
     1     1     2    1
     2     2     3   ar
     3     3     4   ar
     4     4    15    1
     5    15    16    1
     6    16    17    1
     7    17    18    1
     8    18    19    1
     9    19    20    1
    10    20    21    1
    11    21    22    1
    12    22    23    1
    13     4     5   ar
    14     5     6   ar
    15     6     7    1
    16     7     8   ar
    17     8     9   ar
    18     9    10   ar
    19    10    11    1
    20    10    12   ar
    21    12    13    1
    22    12    14   ar
    23     6     2   ar
    24    14     7   ar
    25    23    19    1
@<TRIPOS>MOLECULE
*****
 23 25 0 0 0
SMALL
GASTEIGER

@<TRIPOS>ATOM
      1 C         143.5874  143.2797  164.7907 C.3     1  UNL1        0.0522
      2 C         142.0918  143.3929  164.7752 C.ar    1  UNL1        0.0621
      3 C         141.2821  144.2507  163.8487 C.ar    1  UNL1        0.0337
      4 C         139.8331  144.0562  164.1844 C.ar    1  UNL1        0.1099
      5 N         139.7474  143.0782  165.3184 N.ar    1  UNL1       -0.1673
      6 N         141.1433  142.6682  165.6836 N.ar    1  UNL1       -0.2339
      7 C         141.5239  141.7030  166.7670 C.ar    1  UNL1        0.0833
      8 C         142.0797  140.3563  166.4103 C.ar    1  UNL1        0.0201
      9 C         142.4603  139.3912  167.4936 C.ar    1  UNL1        0.0138
     10 C         142.2850  139.7728  168.9337 C.ar    1  UNL1        0.0683
     11 CL        142.6655  138.8076  170.0170 Cl      1  UNL1       -0.0814
     12 C         141.7291  141.1195  169.2903 C.ar    1  UNL1        0.0697
     13 CL        141.5538  141.5012  170.7303 Cl      1  UNL1       -0.0813
     14 C         141.3486  142.0847  168.2070 C.ar    1  UNL1        0.0314
     15 C         138.6736  144.7227  163.5053 C.3     1  UNL1        0.1893
     16 O         137.9737  144.0362  162.3699 O.3     1  UNL1       -0.3458
     17 C         138.0857  142.5491  162.2092 C.3     1  UNL1        0.1600
     18 C         137.3262  141.6363  163.1257 C.3     1  UNL1        0.1046
     19 N         137.9144  140.3156  163.5253 N.3     1  UNL1       -0.2706
     20 C         138.2460  139.8851  164.9234 C.3     1  UNL1        0.0722
     21 C         138.8109  138.4969  164.8592 C.3     1  UNL1        0.0188
     22 C         138.8283  138.0696  163.4215 C.3     1  UNL1        0.0188
     23 C         138.2743  139.1936  162.5971 C.3     1  UNL1        0.0722
@<TRIPOS>BOND
     1     1     2    1
     2     2     3   ar
     3     3     4   ar
     4     4    15    1
     5    15    16    1
     6    16    17    1
     7    17    18    1
     8    18    19    1
     9    19    20    1
    10    20    21    1
    11    21    22    1
    12    22    23    1
    13     4     5   ar
    14     5     6   ar
    15     6     7    1
    16     7     8   ar
    17     8     9   ar
    18     9    10   ar
    19    10    11    1
    20    10    12   ar
    21    12    13    1
    22    12    14   ar
    23     6     2   ar
    24    14     7   ar
    25    23    19    1
@<TRIPOS>MOLECULE
*****
 23 25 0 0 0
SMALL
GASTEIGER

@<TRIPOS>ATOM
      1 C         139.8243  139.8384  164.4416 C.3     1  UNL1        0.0522
      2 C         140.7167  140.9515  163.9784 C.ar    1  UNL1        0.0621
      3 C         140.9179  141.3870  162.5572 C.ar    1  UNL1        0.0337
      4 C         141.8901  142.5293  162.5556 C.ar    1  UNL1        0.1099
      5 N         142.2898  142.7998  163.9758 N.ar    1  UNL1       -0.1673
      6 N         141.5646  141.8247  164.8552 N.ar    1  UNL1       -0.2339
      7 C         141.6690  141.7379  166.3491 C.ar    1  UNL1        0.0833
      8 C         142.5063  140.6660  166.9814 C.ar    1  UNL1        0.0201
      9 C         142.6107  140.5794  168.4753 C.ar    1  UNL1        0.0138
     10 C         141.8777  141.5646  169.3367 C.ar    1  UNL1        0.0683
     11 CL        141.9821  141.4779  170.8306 Cl      1  UNL1       -0.0814
     12 C         141.0404  142.6365  168.7044 C.ar    1  UNL1        0.0697
     13 CL        140.3075  143.6218  169.5658 Cl      1  UNL1       -0.0813
     14 C         140.9361  142.7232  167.2106 C.ar    1  UNL1        0.0314
     15 C         142.3771  143.2709  161.3461 C.3     1  UNL1        0.1893
     16 O         142.1351  144.7461  161.2230 O.3     1  UNL1       -0.3458
     17 C         140.7637  145.2562  160.8929 C.3     1  UNL1        0.1600
     18 C         139.8801  145.7902  161.9811 C.3     1  UNL1        0.1046
     19 N         139.1324  144.8434  162.8724 N.3     1  UNL1       -0.2706
     20 C         138.1711  143.7831  162.4234 C.3     1  UNL1        0.0722
     21 C         137.6593  143.0751  163.6428 C.3     1  UNL1        0.0188
     22 C         138.3042  143.6979  164.8453 C.3     1  UNL1        0.0188
     23 C         139.2146  144.7907  164.3692 C.3     1  UNL1        0.0722
@<TRIPOS>BOND
     1     1     2    1
     2     2     3   ar
     3     3     4   ar
     4     4    15    1
     5    15    16    1
     6    16    17    1
     7    17    18    1
     8    18    19    1
     9    19    20    1
    10    20    21    1
    11    21    22    1
    12    22    23    1
    13     4     5   ar
    14     5     6   ar
    15     6     7    1
    16     7     8   ar
    17     8     9   ar
    18     9    10   ar
    19    10    11    1
    20    10    12   ar
    21    12    13    1
    22    12    14   ar
    23     6     2   ar
    24    14     7   ar
    25    23    19    1
@<TRIPOS>MOLECULE
*****
 23 25 0 0 0
SMALL
GASTEIGER

@<TRIPOS>ATOM
      1 C         144.6056  142.3770  164.5803 C.3     1  UNL1        0.0522
      2 C         143.7550  141.1740  164.2987 C.ar    1  UNL1        0.0621
      3 C         143.9547  140.1956  163.1794 C.ar    1  UNL1        0.0337
      4 C         142.8785  139.1551  163.2758 C.ar    1  UNL1        0.1099
      5 N         142.0139  139.4904  164.4547 N.ar    1  UNL1       -0.1673
      6 N         142.5556  140.7382  165.0869 N.ar    1  UNL1       -0.2339
      7 C         141.9960  141.4289  166.2952 C.ar    1  UNL1        0.0833
      8 C         140.8273  142.3584  166.1537 C.ar    1  UNL1        0.0201
      9 C         140.2678  143.0490  167.3620 C.ar    1  UNL1        0.0138
     10 C         140.8770  142.8101  168.7117 C.ar    1  UNL1        0.0683
     11 CL        140.3174  143.5008  169.9200 Cl      1  UNL1       -0.0814
     12 C         142.0457  141.8807  168.8532 C.ar    1  UNL1        0.0697
     13 CL        142.6550  141.6418  170.2029 Cl      1  UNL1       -0.0813
     14 C         142.6052  141.1900  167.6449 C.ar    1  UNL1        0.0314
     15 C         142.6987  137.9847  162.3550 C.3     1  UNL1        0.1893
     16 O         141.3607  137.3155  162.2451 O.3     1  UNL1       -0.3458
     17 C         140.2119  138.0364  161.6044 C.3     1  UNL1        0.1600
     18 C         138.8550  138.0022  162.2429 C.3     1  UNL1        0.1046
     19 N         138.6720  138.5088  163.6429 N.3     1  UNL1       -0.2706
     20 C         138.8952  137.7231  164.9010 C.3     1  UNL1        0.0722
     21 C         138.5947  138.6187  166.0661 C.3     1  UNL1        0.0188
     22 C         138.1858  139.9578  165.5281 C.3     1  UNL1        0.0188
     23 C         138.2336  139.8899  164.0305 C.3     1  UNL1        0.0722
@<TRIPOS>BOND
     1     1     2    1
     2     2     3   ar
     3     3     4   ar
     4     4    15    1
     5    15    16    1
     6    16    17    1
     7    17    18    1
     8    18    19    1
     9    19    20    1
    10    20    21    1
    11    21    22    1
    12    22    23    1
    13     4     5   ar
    14     5     6   ar
    15     6     7    1
    16     7     8   ar
    17     8     9   ar
    18     9    10   ar
    19    10    11    1
    20    10    12   ar
    21    12    13    1
    22    12    14   ar
    23     6     2   ar
    24    14     7   ar
    25    23    19    1
