@<TRIPOS>MOLECULE
*****
 39 44 0 0 0
SMALL
GASTEIGER

@<TRIPOS>ATOM
      1 N         142.9604  140.6174  167.1570 N.3     1  UNL1       -0.2750
      2 C         142.7278  141.4825  168.3602 C.3     1  UNL1        0.0594
      3 C         142.4335  140.5857  169.5260 C.3     1  UNL1        0.0174
      4 C         142.4841  139.1663  169.0433 C.3     1  UNL1        0.0174
      5 C         142.8098  139.1859  167.5793 C.3     1  UNL1        0.0594
      6 C         143.1415  139.5060  166.1416 C.3     1  UNL1        0.0386
      7 C         143.2607  140.9759  165.8682 C.3     1  UNL1        0.0890
      8 C         143.0538  141.9643  166.9776 C.3     1  UNL1        0.0386
      9 N         143.5866  141.4578  164.4856 N.ar    1  UNL1       -0.3202
     10 C         144.1290  142.8098  164.1281 C.ar    1  UNL1        0.1201
     11 C         144.4406  143.9174  165.0904 C.3     1  UNL1        0.0718
     12 N         144.3050  142.8597  162.6393 N.ar    1  UNL1       -0.2339
     13 C         143.8714  141.5385  162.0767 C.ar    1  UNL1        0.0919
     14 C         143.4274  140.6721  163.2178 C.ar    1  UNL1        0.0549
     15 C         142.9355  139.2796  162.9550 C.3     1  UNL1        0.0665
     16 C         142.8877  138.7537  161.5511 C.3     1  UNL1        0.0988
     17 N         143.3317  139.6201  160.4100 N.pl3   1  UNL1       -0.2873
     18 C         143.8235  141.0126  160.6728 C.3     1  UNL1        0.1395
     19 C         143.2837  139.0941  159.0060 C.ar    1  UNL1        0.1353
     20 C         142.6570  137.7604  158.7258 C.ar    1  UNL1        0.0550
     21 C         142.6091  137.2344  157.3218 C.ar    1  UNL1        0.1036
     22 N         143.1880  138.0421  156.1981 N.ar    1  UNL1       -0.2223
     23 C         143.8147  139.3758  156.4784 C.ar    1  UNL1        0.2001
     24 N         143.8626  139.9017  157.8823 N.ar    1  UNL1       -0.2090
     25 C         143.2864  141.0992  165.7745 C.3     1  UNL1        0.0741
     26 C         142.1814  141.4392  164.8187 C.3     1  UNL1        0.0414
     27 C         140.7889  141.6610  165.3304 C.3     1  UNL1        0.0955
     28 C         139.9000  140.4877  165.6189 C.ar    1  UNL1       -0.0022
     29 C         139.3347  140.2957  166.9950 C.ar    1  UNL1       -0.0025
     30 C         138.4458  139.1225  167.2836 C.ar    1  UNL1        0.0020
     31 C         138.1223  138.1412  166.1962 C.ar    1  UNL1        0.0296
     32 C         138.6876  138.3333  164.8202 C.ar    1  UNL1        0.1399
     33 F         138.5769  137.5719  163.5325 F       1  UNL1       -0.2042
     34 C         139.5765  139.5065  164.5315 C.ar    1  UNL1        0.0270
     35 C         138.4391  144.8581  165.2451 C.3     1  UNL1        0.0946
     36 C         138.9427  143.4629  165.0221 C.2     1  UNL1        0.2232
     37 O         137.8709  142.7554  164.2472 O.2     1  UNL1       -0.2751
     38 N         140.2853  143.0562  165.5534 N.am    1  UNL1       -0.3021
     39 H         140.8359  143.7051  166.0485 H       1  UNL1        0.1497
@<TRIPOS>BOND
     1    35    36    1
     2    36    37    2
     3    36    38   am
     4    38    27    1
     5    27    26    1
     6    26    25    1
     7    25     1    1
     8     1     2    1
     9     2     3    1
    10     3     4    1
    11     5     4    1
    12     5     6    1
    13     6     7    1
    14     7     9    1
    15     9    10   ar
    16    10    11    1
    17    10    12   ar
    18    12    13   ar
    19    13    14   ar
    20    14    15    1
    21    15    16    1
    22    16    17    1
    23    17    19    1
    24    19    20   ar
    25    20    21   ar
    26    21    22   ar
    27    22    23   ar
    28    23    24   ar
    29    17    18    1
    30     7     8    1
    31    27    28    1
    32    28    29   ar
    33    29    30   ar
    34    30    31   ar
    35    31    32   ar
    36    32    33    1
    37    32    34   ar
    38     5     1    1
    39    14     9   ar
    40    24    19   ar
    41    34    28   ar
    42     8     2    1
    43    18    13    1
    44    38    39    1
@<TRIPOS>MOLECULE
*****
 39 44 0 0 0
SMALL
GASTEIGER

@<TRIPOS>ATOM
      1 N         142.9178  141.0535  167.7687 N.3     1  UNL1       -0.2750
      2 C         143.3036  142.3717  168.3718 C.3     1  UNL1        0.0594
      3 C         143.4782  142.1727  169.8482 C.3     1  UNL1        0.0174
      4 C         143.2003  140.7315  170.1577 C.3     1  UNL1        0.0174
      5 C         142.8540  140.0398  168.8726 C.3     1  UNL1        0.0594
      6 C         142.5485  139.6165  167.4560 C.3     1  UNL1        0.0386
      7 C         142.6522  140.7350  166.4620 C.3     1  UNL1        0.0890
      8 C         143.0298  142.1127  166.9199 C.3     1  UNL1        0.0386
      9 N         142.3783  140.4760  165.0101 N.ar    1  UNL1       -0.3202
     10 C         142.1327  139.1349  164.3848 C.ar    1  UNL1        0.1201
     11 C         142.1179  137.8172  165.1015 C.3     1  UNL1        0.0718
     12 N         141.9046  139.3427  162.9169 N.ar    1  UNL1       -0.2339
     13 C         142.0092  140.8123  162.6350 C.ar    1  UNL1        0.0919
     14 C         142.3019  141.5127  163.9287 C.ar    1  UNL1        0.0549
     15 C         142.4612  143.0040  163.9549 C.3     1  UNL1        0.0665
     16 C         142.3276  143.7948  162.6874 C.3     1  UNL1        0.0988
     17 N         142.0348  143.0944  161.3936 N.pl3   1  UNL1       -0.2873
     18 C         141.8756  141.6031  161.3675 C.3     1  UNL1        0.1395
     19 C         141.9013  143.8853  160.1261 C.ar    1  UNL1        0.1353
     20 C         140.7814  144.8712  159.9717 C.ar    1  UNL1        0.0550
     21 C         140.6479  145.6621  158.7041 C.ar    1  UNL1        0.1036
     22 N         141.6343  145.4671  157.5910 N.ar    1  UNL1       -0.2223
     23 C         142.7542  144.4811  157.7454 C.ar    1  UNL1        0.2001
     24 N         142.8877  143.6903  159.0129 N.ar    1  UNL1       -0.2090
     25 C         142.6440  140.7945  166.3170 C.3     1  UNL1        0.0741
     26 C         141.2324  140.6256  165.8385 C.3     1  UNL1        0.0414
     27 C         140.1424  141.4915  166.3971 C.3     1  UNL1        0.0955
     28 C         139.3251  142.3533  165.4809 C.ar    1  UNL1       -0.0022
     29 C         139.3701  143.8464  165.6174 C.ar    1  UNL1       -0.0025
     30 C         138.5530  144.7082  164.7012 C.ar    1  UNL1        0.0020
     31 C         137.6908  144.0769  163.6486 C.ar    1  UNL1        0.0296
     32 C         137.6458  142.5838  163.5121 C.ar    1  UNL1        0.1399
     33 F         136.9170  141.6423  162.5996 F       1  UNL1       -0.2042
     34 C         138.4629  141.7220  164.4283 C.ar    1  UNL1        0.0270
     35 C         138.8687  140.3499  169.9783 C.3     1  UNL1        0.0946
     36 C         139.1415  140.3459  168.5033 C.2     1  UNL1        0.2232
     37 O         138.5601  139.0665  167.9789 O.2     1  UNL1       -0.2751
     38 N         139.8695  141.4955  167.8721 N.am    1  UNL1       -0.3021
     39 H         140.1683  142.2526  168.4259 H       1  UNL1        0.1497
@<TRIPOS>BOND
     1    35    36    1
     2    36    37    2
     3    36    38   am
     4    38    27    1
     5    27    26    1
     6    26    25    1
     7    25     1    1
     8     1     2    1
     9     2     3    1
    10     3     4    1
    11     5     4    1
    12     5     6    1
    13     6     7    1
    14     7     9    1
    15     9    10   ar
    16    10    11    1
    17    10    12   ar
    18    12    13   ar
    19    13    14   ar
    20    14    15    1
    21    15    16    1
    22    16    17    1
    23    17    19    1
    24    19    20   ar
    25    20    21   ar
    26    21    22   ar
    27    22    23   ar
    28    23    24   ar
    29    17    18    1
    30     7     8    1
    31    27    28    1
    32    28    29   ar
    33    29    30   ar
    34    30    31   ar
    35    31    32   ar
    36    32    33    1
    37    32    34   ar
    38     5     1    1
    39    14     9   ar
    40    24    19   ar
    41    34    28   ar
    42     8     2    1
    43    18    13    1
    44    38    39    1
@<TRIPOS>MOLECULE
*****
 39 44 0 0 0
SMALL
GASTEIGER

@<TRIPOS>ATOM
      1 N         142.7772  140.6391  166.5406 N.3     1  UNL1       -0.2750
      2 C         143.0808  142.0766  166.8433 C.3     1  UNL1        0.0594
      3 C         143.1050  142.2413  168.3341 C.3     1  UNL1        0.0174
      4 C         142.8164  140.9056  168.9527 C.3     1  UNL1        0.0174
      5 C         142.6138  139.9154  167.8444 C.3     1  UNL1        0.0594
      6 C         142.4617  139.1560  166.5484 C.3     1  UNL1        0.0386
      7 C         142.6520  140.0091  165.3294 C.3     1  UNL1        0.0890
      8 C         142.9615  141.4694  165.4769 C.3     1  UNL1        0.0386
      9 N         142.5327  139.4019  163.9630 N.ar    1  UNL1       -0.3202
     10 C         141.9576  138.0537  163.6443 C.ar    1  UNL1        0.1201
     11 C         141.4007  137.0759  164.6362 C.3     1  UNL1        0.0718
     12 N         142.0371  137.8550  162.1597 N.ar    1  UNL1       -0.2339
     13 C         142.6614  139.0804  161.5608 C.ar    1  UNL1        0.0919
     14 C         142.9677  140.0365  162.6753 C.ar    1  UNL1        0.0549
     15 C         143.6031  141.3613  162.3736 C.3     1  UNL1        0.0665
     16 C         143.9323  141.7300  160.9574 C.3     1  UNL1        0.0988
     17 N         143.6260  140.7740  159.8429 N.pl3   1  UNL1       -0.2873
     18 C         142.9905  139.4492  160.1446 C.3     1  UNL1        0.1395
     19 C         143.9551  141.1428  158.4266 C.ar    1  UNL1        0.1353
     20 C         143.4595  142.4376  157.8543 C.ar    1  UNL1        0.0550
     21 C         143.7886  142.8065  156.4380 C.ar    1  UNL1        0.1036
     22 N         144.6134  141.8803  155.5942 N.ar    1  UNL1       -0.2223
     23 C         145.1090  140.5854  156.1666 C.ar    1  UNL1        0.2001
     24 N         144.7799  140.2167  157.5828 N.ar    1  UNL1       -0.2090
     25 C         142.6580  140.0320  165.1742 C.3     1  UNL1        0.0741
     26 C         141.3649  140.1298  164.4203 C.3     1  UNL1        0.0414
     27 C         140.2231  140.9192  164.9886 C.3     1  UNL1        0.0955
     28 C         139.9200  142.2887  164.4570 C.ar    1  UNL1       -0.0022
     29 C         140.2009  142.6145  163.0201 C.ar    1  UNL1       -0.0025
     30 C         139.8978  143.9840  162.4884 C.ar    1  UNL1        0.0020
     31 C         139.3139  145.0277  163.3938 C.ar    1  UNL1        0.0296
     32 C         139.0330  144.7019  164.8308 C.ar    1  UNL1        0.1399
     33 F         138.4695  145.4778  165.9843 F       1  UNL1       -0.2042
     34 C         139.3360  143.3324  165.3624 C.ar    1  UNL1        0.0270
     35 C         137.7208  138.5320  166.9354 C.3     1  UNL1        0.0946
     36 C         138.5596  139.1121  165.8354 C.2     1  UNL1        0.2232
     37 O         138.3407  138.2320  164.6407 O.2     1  UNL1       -0.2751
     38 N         139.3843  140.3392  166.0886 N.am    1  UNL1       -0.3021
     39 H         139.3752  140.7638  166.9768 H       1  UNL1        0.1497
@<TRIPOS>BOND
     1    35    36    1
     2    36    37    2
     3    36    38   am
     4    38    27    1
     5    27    26    1
     6    26    25    1
     7    25     1    1
     8     1     2    1
     9     2     3    1
    10     3     4    1
    11     5     4    1
    12     5     6    1
    13     6     7    1
    14     7     9    1
    15     9    10   ar
    16    10    11    1
    17    10    12   ar
    18    12    13   ar
    19    13    14   ar
    20    14    15    1
    21    15    16    1
    22    16    17    1
    23    17    19    1
    24    19    20   ar
    25    20    21   ar
    26    21    22   ar
    27    22    23   ar
    28    23    24   ar
    29    17    18    1
    30     7     8    1
    31    27    28    1
    32    28    29   ar
    33    29    30   ar
    34    30    31   ar
    35    31    32   ar
    36    32    33    1
    37    32    34   ar
    38     5     1    1
    39    14     9   ar
    40    24    19   ar
    41    34    28   ar
    42     8     2    1
    43    18    13    1
    44    38    39    1
@<TRIPOS>MOLECULE
*****
 39 44 0 0 0
SMALL
GASTEIGER

@<TRIPOS>ATOM
      1 N         139.6991  141.1866  167.9095 N.3     1  UNL1       -0.2750
      2 C         140.1165  142.4592  168.5850 C.3     1  UNL1        0.0594
      3 C         139.8905  142.2973  170.0590 C.3     1  UNL1        0.0174
      4 C         139.3334  140.9246  170.2945 C.3     1  UNL1        0.0174
      5 C         139.2151  140.2382  168.9661 C.3     1  UNL1        0.0594
      6 C         139.2082  139.8060  167.5195 C.3     1  UNL1        0.0386
      7 C         139.7190  140.8568  166.5789 C.3     1  UNL1        0.0890
      8 C         140.1731  142.1835  167.1117 C.3     1  UNL1        0.0386
      9 N         139.7756  140.5811  165.1055 N.ar    1  UNL1       -0.3202
     10 C         139.3510  139.3114  164.4292 C.ar    1  UNL1        0.1201
     11 C         138.7952  138.0944  165.1075 C.3     1  UNL1        0.0718
     12 N         139.5798  139.4723  162.9555 N.ar    1  UNL1       -0.2339
     13 C         140.1458  140.8415  162.7211 C.ar    1  UNL1        0.0919
     14 C         140.2668  141.5268  164.0499 C.ar    1  UNL1        0.0549
     15 C         140.8087  142.9233  164.1269 C.3     1  UNL1        0.0665
     16 C         141.2295  143.6346  162.8751 C.3     1  UNL1        0.0988
     17 N         141.1085  142.9493  161.5463 N.pl3   1  UNL1       -0.2873
     18 C         140.5666  141.5527  161.4693 C.3     1  UNL1        0.1395
     19 C         141.5294  143.6606  160.2945 C.ar    1  UNL1        0.1353
     20 C         140.8700  144.9511  159.9074 C.ar    1  UNL1        0.0550
     21 C         141.2909  145.6624  158.6556 C.ar    1  UNL1        0.1036
     22 N         142.3711  145.0832  157.7910 N.ar    1  UNL1       -0.2223
     23 C         143.0305  143.7927  158.1781 C.ar    1  UNL1        0.2001
     24 N         142.6096  143.0814  159.4299 N.ar    1  UNL1       -0.2090
     25 C         139.7557  140.9109  166.4362 C.3     1  UNL1        0.0741
     26 C         140.8296  140.0236  165.8800 C.3     1  UNL1        0.0414
     27 C         142.2143  140.0712  166.4547 C.3     1  UNL1        0.0955
     28 C         143.3370  140.6669  165.6580 C.ar    1  UNL1       -0.0022
     29 C         144.1876  139.7893  164.7884 C.ar    1  UNL1       -0.0025
     30 C         145.3103  140.3850  163.9917 C.ar    1  UNL1        0.0020
     31 C         145.5824  141.8583  164.0647 C.ar    1  UNL1        0.0296
     32 C         144.7318  142.7359  164.9344 C.ar    1  UNL1        0.1399
     33 F         144.7201  144.2049  165.2380 F       1  UNL1       -0.2042
     34 C         143.6091  142.1402  165.7310 C.ar    1  UNL1        0.0270
     35 C         143.1954  139.8885  170.2958 C.3     1  UNL1        0.0946
     36 C         142.9333  140.4367  168.9244 C.2     1  UNL1        0.2232
     37 O         143.2229  141.9063  169.0043 O.2     1  UNL1       -0.2751
     38 N         142.4764  139.5230  167.8261 N.am    1  UNL1       -0.3021
     39 H         142.3484  138.5634  168.0054 H       1  UNL1        0.1497
@<TRIPOS>BOND
     1    35    36    1
     2    36    37    2
     3    36    38   am
     4    38    27    1
     5    27    26    1
     6    26    25    1
     7    25     1    1
     8     1     2    1
     9     2     3    1
    10     3     4    1
    11     5     4    1
    12     5     6    1
    13     6     7    1
    14     7     9    1
    15     9    10   ar
    16    10    11    1
    17    10    12   ar
    18    12    13   ar
    19    13    14   ar
    20    14    15    1
    21    15    16    1
    22    16    17    1
    23    17    19    1
    24    19    20   ar
    25    20    21   ar
    26    21    22   ar
    27    22    23   ar
    28    23    24   ar
    29    17    18    1
    30     7     8    1
    31    27    28    1
    32    28    29   ar
    33    29    30   ar
    34    30    31   ar
    35    31    32   ar
    36    32    33    1
    37    32    34   ar
    38     5     1    1
    39    14     9   ar
    40    24    19   ar
    41    34    28   ar
    42     8     2    1
    43    18    13    1
    44    38    39    1
@<TRIPOS>MOLECULE
*****
 39 44 0 0 0
SMALL
GASTEIGER

@<TRIPOS>ATOM
      1 N         142.8069  140.4314  167.1056 N.3     1  UNL1       -0.2750
      2 C         142.6071  141.4153  168.2201 C.3     1  UNL1        0.0594
      3 C         142.4867  140.6456  169.5019 C.3     1  UNL1        0.0174
      4 C         142.6119  139.1860  169.1796 C.3     1  UNL1        0.0174
      5 C         142.8098  139.0536  167.6986 C.3     1  UNL1        0.0594
      6 C         142.9915  139.2224  166.2094 C.3     1  UNL1        0.0386
      7 C         142.9667  140.6539  165.7622 C.3     1  UNL1        0.0890
      8 C         142.7745  141.7504  166.7677 C.3     1  UNL1        0.0386
      9 N         143.1341  140.9890  164.3097 N.ar    1  UNL1       -0.3202
     10 C         143.7195  142.2554  163.7589 C.ar    1  UNL1        0.1201
     11 C         144.2404  143.4090  164.5638 C.3     1  UNL1        0.0718
     12 N         143.6926  142.1656  162.2618 N.ar    1  UNL1       -0.2339
     13 C         143.0906  140.8437  161.8874 C.ar    1  UNL1        0.0919
     14 C         142.7454  140.1165  163.1532 C.ar    1  UNL1        0.0549
     15 C         142.1217  138.7539  163.0890 C.3     1  UNL1        0.0665
     16 C         141.8432  138.1184  161.7591 C.3     1  UNL1        0.0988
     17 N         142.1884  138.8456  160.4934 N.pl3   1  UNL1       -0.2873
     18 C         142.8121  140.2083  160.5576 C.3     1  UNL1        0.1395
     19 C         141.9099  138.2101  159.1635 C.ar    1  UNL1        0.1353
     20 C         140.5722  138.3934  158.5101 C.ar    1  UNL1        0.0550
     21 C         140.2937  137.7578  157.1802 C.ar    1  UNL1        0.1036
     22 N         141.3530  136.9391  156.5037 N.ar    1  UNL1       -0.2223
     23 C         142.6907  136.7558  157.1572 C.ar    1  UNL1        0.2001
     24 N         142.9692  137.3913  158.4870 N.ar    1  UNL1       -0.2090
     25 C         142.9742  140.7665  165.6532 C.3     1  UNL1        0.0741
     26 C         141.7934  140.7113  164.7298 C.3     1  UNL1        0.0414
     27 C         140.4661  141.2486  165.1765 C.3     1  UNL1        0.0955
     28 C         139.9586  142.5478  164.6246 C.ar    1  UNL1       -0.0022
     29 C         140.0822  142.8391  163.1584 C.ar    1  UNL1       -0.0025
     30 C         139.5748  144.1383  162.6065 C.ar    1  UNL1        0.0020
     31 C         138.9437  145.1461  163.5208 C.ar    1  UNL1        0.0296
     32 C         138.8201  144.8547  164.9871 C.ar    1  UNL1        0.1399
     33 F         138.2614  145.6105  166.1562 F       1  UNL1       -0.2042
     34 C         139.3276  143.5556  165.5390 C.ar    1  UNL1        0.0270
     35 C         137.9379  138.6056  166.7170 C.3     1  UNL1        0.0946
     36 C         138.7578  139.3676  165.7184 C.2     1  UNL1        0.2232
     37 O         138.4527  138.7584  164.3821 O.2     1  UNL1       -0.2751
     38 N         139.6462  140.4866  166.1751 N.am    1  UNL1       -0.3021
     39 H         139.6912  140.7209  167.1302 H       1  UNL1        0.1497
@<TRIPOS>BOND
     1    35    36    1
     2    36    37    2
     3    36    38   am
     4    38    27    1
     5    27    26    1
     6    26    25    1
     7    25     1    1
     8     1     2    1
     9     2     3    1
    10     3     4    1
    11     5     4    1
    12     5     6    1
    13     6     7    1
    14     7     9    1
    15     9    10   ar
    16    10    11    1
    17    10    12   ar
    18    12    13   ar
    19    13    14   ar
    20    14    15    1
    21    15    16    1
    22    16    17    1
    23    17    19    1
    24    19    20   ar
    25    20    21   ar
    26    21    22   ar
    27    22    23   ar
    28    23    24   ar
    29    17    18    1
    30     7     8    1
    31    27    28    1
    32    28    29   ar
    33    29    30   ar
    34    30    31   ar
    35    31    32   ar
    36    32    33    1
    37    32    34   ar
    38     5     1    1
    39    14     9   ar
    40    24    19   ar
    41    34    28   ar
    42     8     2    1
    43    18    13    1
    44    38    39    1
@<TRIPOS>MOLECULE
*****
 39 44 0 0 0
SMALL
GASTEIGER

@<TRIPOS>ATOM
      1 N         142.8741  141.0497  165.7866 N.3     1  UNL1       -0.2750
      2 C         142.9565  139.5856  166.1024 C.3     1  UNL1        0.0594
      3 C         142.7467  139.4172  167.5781 C.3     1  UNL1        0.0174
      4 C         142.5345  140.7772  168.1743 C.3     1  UNL1        0.0174
      5 C         142.6133  141.7861  167.0671 C.3     1  UNL1        0.0594
      6 C         142.7408  142.5601  165.7772 C.3     1  UNL1        0.0386
      7 C         143.0004  141.6919  164.5819 C.3     1  UNL1        0.0890
      8 C         143.1083  140.2046  164.7445 C.3     1  UNL1        0.0386
      9 N         143.1521  142.3109  163.2240 N.ar    1  UNL1       -0.3202
     10 C         143.0537  143.7734  162.9057 C.ar    1  UNL1        0.1201
     11 C         142.7863  144.8738  163.8894 C.3     1  UNL1        0.0718
     12 N         143.2696  143.9424  161.4310 N.ar    1  UNL1       -0.2339
     13 C         143.5015  142.5843  160.8379 C.ar    1  UNL1        0.0919
     14 C         143.4289  141.5759  161.9460 C.ar    1  UNL1        0.0549
     15 C         143.6241  140.1189  161.6482 C.3     1  UNL1        0.0665
     16 C         143.8920  139.6701  160.2422 C.3     1  UNL1        0.0988
     17 N         143.9646  140.6784  159.1341 N.pl3   1  UNL1       -0.2873
     18 C         143.7694  142.1355  159.4319 C.3     1  UNL1        0.1395
     19 C         144.2325  140.2296  157.7280 C.ar    1  UNL1        0.1353
     20 C         145.2156  140.9770  156.8766 C.ar    1  UNL1        0.0550
     21 C         145.4835  140.5282  155.4706 C.ar    1  UNL1        0.1036
     22 N         144.7683  139.3319  154.9161 N.ar    1  UNL1       -0.2223
     23 C         143.7852  138.5845  155.7676 C.ar    1  UNL1        0.2001
     24 N         143.5173  139.0333  157.1735 N.ar    1  UNL1       -0.2090
     25 C         143.0258  141.6687  164.4288 C.3     1  UNL1        0.0741
     26 C         141.8797  141.6449  163.4614 C.3     1  UNL1        0.0414
     27 C         140.4704  141.7431  163.9655 C.3     1  UNL1        0.0955
     28 C         139.7939  140.5345  164.5416 C.ar    1  UNL1       -0.0022
     29 C         139.3375  140.5402  165.9705 C.ar    1  UNL1       -0.0025
     30 C         138.6611  139.3318  166.5466 C.ar    1  UNL1        0.0020
     31 C         138.4411  138.1175  165.6938 C.ar    1  UNL1        0.0296
     32 C         138.8975  138.1118  164.2650 C.ar    1  UNL1        0.1399
     33 F         138.8423  137.1016  163.1574 F       1  UNL1       -0.2042
     34 C         139.5739  139.3203  163.6888 C.ar    1  UNL1        0.0270
     35 C         137.6625  144.4282  163.1556 C.3     1  UNL1        0.0946
     36 C         138.3954  143.1214  163.2275 C.2     1  UNL1        0.2232
     37 O         137.5145  142.1155  162.5478 O.2     1  UNL1       -0.2751
     38 N         139.7375  143.0498  163.8936 N.am    1  UNL1       -0.3021
     39 H         140.1373  143.8605  164.2837 H       1  UNL1        0.1497
@<TRIPOS>BOND
     1    35    36    1
     2    36    37    2
     3    36    38   am
     4    38    27    1
     5    27    26    1
     6    26    25    1
     7    25     1    1
     8     1     2    1
     9     2     3    1
    10     3     4    1
    11     5     4    1
    12     5     6    1
    13     6     7    1
    14     7     9    1
    15     9    10   ar
    16    10    11    1
    17    10    12   ar
    18    12    13   ar
    19    13    14   ar
    20    14    15    1
    21    15    16    1
    22    16    17    1
    23    17    19    1
    24    19    20   ar
    25    20    21   ar
    26    21    22   ar
    27    22    23   ar
    28    23    24   ar
    29    17    18    1
    30     7     8    1
    31    27    28    1
    32    28    29   ar
    33    29    30   ar
    34    30    31   ar
    35    31    32   ar
    36    32    33    1
    37    32    34   ar
    38     5     1    1
    39    14     9   ar
    40    24    19   ar
    41    34    28   ar
    42     8     2    1
    43    18    13    1
    44    38    39    1
@<TRIPOS>MOLECULE
*****
 39 44 0 0 0
SMALL
GASTEIGER

@<TRIPOS>ATOM
      1 N         139.7397  143.6929  163.7252 N.3     1  UNL1       -0.2750
      2 C         138.5295  142.8139  163.6119 C.3     1  UNL1        0.0594
      3 C         137.4851  143.3395  164.5515 C.3     1  UNL1        0.0174
      4 C         138.0498  144.5435  165.2456 C.3     1  UNL1        0.0174
      5 C         139.4432  144.7619  164.7350 C.3     1  UNL1        0.0594
      6 C         140.7892  144.7375  164.0516 C.3     1  UNL1        0.0386
      7 C         140.9410  143.6142  163.0693 C.3     1  UNL1        0.0890
      8 C         139.8111  142.6523  162.8494 C.3     1  UNL1        0.0386
      9 N         142.2227  143.4526  162.3068 N.ar    1  UNL1       -0.3202
     10 C         143.5156  144.1558  162.5964 C.ar    1  UNL1        0.1201
     11 C         143.7539  145.1440  163.6994 C.3     1  UNL1        0.0718
     12 N         144.5283  143.6972  161.5894 N.ar    1  UNL1       -0.2339
     13 C         143.8613  142.7106  160.6774 C.ar    1  UNL1        0.0919
     14 C         142.4363  142.5595  161.1208 C.ar    1  UNL1        0.0549
     15 C         141.5174  141.6280  160.3873 C.3     1  UNL1        0.0665
     16 C         142.0235  140.8478  159.2104 C.3     1  UNL1        0.0988
     17 N         143.4485  140.9990  158.7670 N.pl3   1  UNL1       -0.2873
     18 C         144.3674  141.9304  159.5005 C.3     1  UNL1        0.1395
     19 C         143.9546  140.2187  157.5901 C.ar    1  UNL1        0.1353
     20 C         145.0658  140.7699  156.7466 C.ar    1  UNL1        0.0550
     21 C         145.5718  139.9896  155.5697 C.ar    1  UNL1        0.1036
     22 N         144.9667  138.6582  155.2363 N.ar    1  UNL1       -0.2223
     23 C         143.8555  138.1071  156.0798 C.ar    1  UNL1        0.2001
     24 N         143.3494  138.8873  157.2567 N.ar    1  UNL1       -0.2090
     25 C         141.0213  143.5313  162.9628 C.3     1  UNL1        0.0741
     26 C         142.1891  142.8363  163.5976 C.3     1  UNL1        0.0414
     27 C         141.9650  141.6339  164.4660 C.3     1  UNL1        0.0955
     28 C         141.7839  141.8006  165.9457 C.ar    1  UNL1       -0.0022
     29 C         140.4248  141.6353  166.5583 C.ar    1  UNL1       -0.0025
     30 C         140.2436  141.8019  168.0379 C.ar    1  UNL1        0.0020
     31 C         141.4218  142.1339  168.9050 C.ar    1  UNL1        0.0296
     32 C         142.7810  142.2992  168.2923 C.ar    1  UNL1        0.1399
     33 F         144.1393  142.6212  168.8414 F       1  UNL1       -0.2042
     34 C         142.9621  142.1326  166.8127 C.ar    1  UNL1        0.0270
     35 C         143.1095  138.3182  162.6098 C.3     1  UNL1        0.0946
     36 C         143.1527  139.6872  163.2211 C.2     1  UNL1        0.2232
     37 O         144.5547  140.1832  163.0257 O.2     1  UNL1       -0.2751
     38 N         141.9218  140.2648  163.8546 N.am    1  UNL1       -0.3021
     39 H         141.0857  139.7454  163.8692 H       1  UNL1        0.1497
@<TRIPOS>BOND
     1    35    36    1
     2    36    37    2
     3    36    38   am
     4    38    27    1
     5    27    26    1
     6    26    25    1
     7    25     1    1
     8     1     2    1
     9     2     3    1
    10     3     4    1
    11     5     4    1
    12     5     6    1
    13     6     7    1
    14     7     9    1
    15     9    10   ar
    16    10    11    1
    17    10    12   ar
    18    12    13   ar
    19    13    14   ar
    20    14    15    1
    21    15    16    1
    22    16    17    1
    23    17    19    1
    24    19    20   ar
    25    20    21   ar
    26    21    22   ar
    27    22    23   ar
    28    23    24   ar
    29    17    18    1
    30     7     8    1
    31    27    28    1
    32    28    29   ar
    33    29    30   ar
    34    30    31   ar
    35    31    32   ar
    36    32    33    1
    37    32    34   ar
    38     5     1    1
    39    14     9   ar
    40    24    19   ar
    41    34    28   ar
    42     8     2    1
    43    18    13    1
    44    38    39    1
@<TRIPOS>MOLECULE
*****
 39 44 0 0 0
SMALL
GASTEIGER

@<TRIPOS>ATOM
      1 N         139.9244  139.0979  165.8473 N.3     1  UNL1       -0.2750
      2 C         140.0855  139.6690  167.2250 C.3     1  UNL1        0.0594
      3 C         138.7560  139.5954  167.9157 C.3     1  UNL1        0.0174
      4 C         137.7732  138.9789  166.9649 C.3     1  UNL1        0.0174
      5 C         138.4952  138.6714  165.6866 C.3     1  UNL1        0.0594
      6 C         139.4618  138.4781  164.5430 C.3     1  UNL1        0.0386
      7 C         140.8522  138.9506  164.8488 C.3     1  UNL1        0.0890
      8 C         141.1641  139.5460  166.1898 C.3     1  UNL1        0.0386
      9 N         141.9308  138.8276  163.8136 N.ar    1  UNL1       -0.3202
     10 C         143.4070  138.7979  164.0777 C.ar    1  UNL1        0.1201
     11 C         144.0639  138.8860  165.4234 C.3     1  UNL1        0.0718
     12 N         144.1111  138.6647  162.7599 N.ar    1  UNL1       -0.2339
     13 C         143.0699  138.6121  161.6814 C.ar    1  UNL1        0.0919
     14 C         141.7224  138.7128  162.3326 C.ar    1  UNL1        0.0549
     15 C         140.4798  138.6868  161.4929 C.3     1  UNL1        0.0665
     16 C         140.5847  138.5602  160.0020 C.3     1  UNL1        0.0988
     17 N         141.9322  138.4596  159.3507 N.pl3   1  UNL1       -0.2873
     18 C         143.1748  138.4855  160.1904 C.3     1  UNL1        0.1395
     19 C         142.0370  138.3330  157.8597 C.ar    1  UNL1        0.1353
     20 C         140.7937  138.2485  157.0249 C.ar    1  UNL1        0.0550
     21 C         140.8985  138.1219  155.5339 C.ar    1  UNL1        0.1036
     22 N         142.2468  138.0797  154.8778 N.ar    1  UNL1       -0.2223
     23 C         143.4901  138.1642  155.7126 C.ar    1  UNL1        0.2001
     24 N         143.3853  138.2908  157.2036 N.ar    1  UNL1       -0.2090
     25 C         141.0029  138.9749  164.8122 C.3     1  UNL1        0.0741
     26 C         141.2350  140.0889  163.8348 C.3     1  UNL1        0.0414
     27 C         141.2018  141.5144  164.3005 C.3     1  UNL1        0.0955
     28 C         139.9422  142.3180  164.1672 C.ar    1  UNL1       -0.0022
     29 C         138.9118  141.9334  163.1473 C.ar    1  UNL1       -0.0025
     30 C         137.6522  142.7369  163.0138 C.ar    1  UNL1        0.0020
     31 C         137.4230  143.9249  163.9004 C.ar    1  UNL1        0.0296
     32 C         138.4535  144.3095  164.9204 C.ar    1  UNL1        0.1399
     33 F         138.5510  145.4037  165.9417 F       1  UNL1       -0.2042
     34 C         139.7131  143.5060  165.0538 C.ar    1  UNL1        0.0270
     35 C         144.8690  142.9908  164.6493 C.3     1  UNL1        0.0946
     36 C         143.6426  142.3688  164.0502 C.2     1  UNL1        0.2232
     37 O         143.9717  142.1101  162.6099 O.2     1  UNL1       -0.2751
     38 N         142.4283  142.1364  164.8996 N.am    1  UNL1       -0.3021
     39 H         142.4362  142.3921  165.8503 H       1  UNL1        0.1497
@<TRIPOS>BOND
     1    35    36    1
     2    36    37    2
     3    36    38   am
     4    38    27    1
     5    27    26    1
     6    26    25    1
     7    25     1    1
     8     1     2    1
     9     2     3    1
    10     3     4    1
    11     5     4    1
    12     5     6    1
    13     6     7    1
    14     7     9    1
    15     9    10   ar
    16    10    11    1
    17    10    12   ar
    18    12    13   ar
    19    13    14   ar
    20    14    15    1
    21    15    16    1
    22    16    17    1
    23    17    19    1
    24    19    20   ar
    25    20    21   ar
    26    21    22   ar
    27    22    23   ar
    28    23    24   ar
    29    17    18    1
    30     7     8    1
    31    27    28    1
    32    28    29   ar
    33    29    30   ar
    34    30    31   ar
    35    31    32   ar
    36    32    33    1
    37    32    34   ar
    38     5     1    1
    39    14     9   ar
    40    24    19   ar
    41    34    28   ar
    42     8     2    1
    43    18    13    1
    44    38    39    1
@<TRIPOS>MOLECULE
*****
 39 44 0 0 0
SMALL
GASTEIGER

@<TRIPOS>ATOM
      1 N         138.9937  140.8392  165.6029 N.3     1  UNL1       -0.2750
      2 C         139.7971  141.1971  166.8180 C.3     1  UNL1        0.0594
      3 C         139.5532  140.1469  167.8609 C.3     1  UNL1        0.0174
      4 C         138.5990  139.1400  167.2904 C.3     1  UNL1        0.0174
      5 C         138.2532  139.5678  165.8949 C.3     1  UNL1        0.0594
      6 C         138.0909  140.2300  164.5479 C.3     1  UNL1        0.0386
      7 C         138.8905  141.4905  164.4010 C.3     1  UNL1        0.0890
      8 C         139.7436  141.9741  165.5361 C.3     1  UNL1        0.0386
      9 N         138.8370  142.2676  163.1190 N.ar    1  UNL1       -0.3202
     10 C         139.0170  143.7501  162.9784 C.ar    1  UNL1        0.1201
     11 C         139.2822  144.7158  164.0951 C.3     1  UNL1        0.0718
     12 N         138.8854  144.0972  161.5251 N.ar    1  UNL1       -0.2339
     13 C         138.6239  142.8292  160.7675 C.ar    1  UNL1        0.0919
     14 C         138.5940  141.6985  161.7526 C.ar    1  UNL1        0.0549
     15 C         138.3494  140.2967  161.2781 C.3     1  UNL1        0.0665
     16 C         138.1347  140.0257  159.8185 C.3     1  UNL1        0.0988
     17 N         138.1646  141.1565  158.8334 N.pl3   1  UNL1       -0.2873
     18 C         138.4092  142.5583  159.3079 C.3     1  UNL1        0.1395
     19 C         137.9499  140.8855  157.3738 C.ar    1  UNL1        0.1353
     20 C         139.1203  140.8579  156.4360 C.ar    1  UNL1        0.0550
     21 C         138.9055  140.5868  154.9763 C.ar    1  UNL1        0.1036
     22 N         137.5204  140.3434  154.4546 N.ar    1  UNL1       -0.2223
     23 C         136.3501  140.3710  155.3924 C.ar    1  UNL1        0.2001
     24 N         136.5648  140.6420  156.8520 N.ar    1  UNL1       -0.2090
     25 C         138.9402  141.6161  164.3210 C.3     1  UNL1        0.0741
     26 C         140.1808  141.7876  163.4956 C.3     1  UNL1        0.0414
     27 C         141.2711  140.7593  163.5576 C.3     1  UNL1        0.0955
     28 C         142.7027  141.1903  163.6797 C.ar    1  UNL1       -0.0022
     29 C         143.7455  140.5907  162.7836 C.ar    1  UNL1       -0.0025
     30 C         145.1770  141.0216  162.9057 C.ar    1  UNL1        0.0020
     31 C         145.5657  142.0522  163.9240 C.ar    1  UNL1        0.0296
     32 C         144.5229  142.6518  164.8200 C.ar    1  UNL1        0.1399
     33 F         144.5544  143.6754  165.9162 F       1  UNL1       -0.2042
     34 C         143.0914  142.2209  164.6980 C.ar    1  UNL1        0.0270
     35 C         141.0346  136.9200  164.5344 C.3     1  UNL1        0.0946
     36 C         141.3759  138.3794  164.5946 C.2     1  UNL1        0.2232
     37 O         142.1546  138.5700  165.8624 O.2     1  UNL1       -0.2751
     38 N         140.9298  139.2999  163.4974 N.am    1  UNL1       -0.3021
     39 H         140.4130  138.9461  162.7378 H       1  UNL1        0.1497
@<TRIPOS>BOND
     1    35    36    1
     2    36    37    2
     3    36    38   am
     4    38    27    1
     5    27    26    1
     6    26    25    1
     7    25     1    1
     8     1     2    1
     9     2     3    1
    10     3     4    1
    11     5     4    1
    12     5     6    1
    13     6     7    1
    14     7     9    1
    15     9    10   ar
    16    10    11    1
    17    10    12   ar
    18    12    13   ar
    19    13    14   ar
    20    14    15    1
    21    15    16    1
    22    16    17    1
    23    17    19    1
    24    19    20   ar
    25    20    21   ar
    26    21    22   ar
    27    22    23   ar
    28    23    24   ar
    29    17    18    1
    30     7     8    1
    31    27    28    1
    32    28    29   ar
    33    29    30   ar
    34    30    31   ar
    35    31    32   ar
    36    32    33    1
    37    32    34   ar
    38     5     1    1
    39    14     9   ar
    40    24    19   ar
    41    34    28   ar
    42     8     2    1
    43    18    13    1
    44    38    39    1
