@<TRIPOS>MOLECULE
*****
 30 33 0 0 0
SMALL
GASTEIGER

@<TRIPOS>ATOM
      1 C         142.7312  142.3782  166.5849 C.ar    1  UNL1        0.1300
      2 C         143.8664  142.9173  165.7658 C.ar    1  UNL1        0.1260
      3 N         143.6279  143.3585  164.3522 N.ar    1  UNL1       -0.2254
      4 C         142.2543  143.2606  163.7576 C.ar    1  UNL1        0.1511
      5 C         141.1191  142.7216  164.5766 C.ar    1  UNL1        0.1336
      6 N         141.3576  142.2804  165.9903 N.ar    1  UNL1       -0.2328
      7 N         142.0158  143.7018  162.3438 N.pl3   1  UNL1       -0.2920
      8 C         142.8956  143.1926  161.2408 C.3     1  UNL1        0.0922
      9 C         142.6571  143.6339  159.8271 C.3     1  UNL1        0.0228
     10 C         141.5389  144.5842  159.5165 C.3     1  UNL1        0.0163
     11 C         140.4656  145.5253  159.0558 C.3     1  UNL1        0.0014
     12 C         140.5952  145.6846  157.5698 C.3     1  UNL1        0.0014
     13 C         141.7488  144.8418  157.1123 C.3     1  UNL1        0.0155
     14 C         142.3320  144.1618  158.3154 C.3     1  UNL1        0.0508
     15 N         143.5027  143.2241  158.3171 N.3     1  UNL1       -0.3222
     16 C         140.6592  145.0934  160.6196 C.3     1  UNL1        0.0228
     17 C         140.8977  144.6522  162.0332 C.3     1  UNL1        0.0922
     18 H         143.6849  142.9095  159.2701 H       1  UNL1        0.1188
     19 H         144.3253  143.7065  157.9552 H       1  UNL1        0.1188
     20 S         142.9696  141.9370  167.9986 S.3     1  UNL1       -0.0655
     21 N         139.8353  139.3891  171.2671 N.pl3   1  UNL1       -0.3419
     22 C         140.2740  140.6698  170.6211 C.ar    1  UNL1        0.1365
     23 N         139.5843  141.9571  170.9632 N.ar    1  UNL1       -0.2287
     24 C         140.0230  143.2377  170.3172 C.ar    1  UNL1        0.1009
     25 C         141.1515  143.2311  169.3289 C.ar    1  UNL1        0.0281
     26 C         141.8412  141.9438  168.9868 C.ar    1  UNL1        0.0457
     27 C         141.4024  140.6631  169.6329 C.ar    1  UNL1        0.0947
     28 CL        142.0921  139.3757  169.2908 Cl      1  UNL1       -0.0788
     29 H         139.0946  139.3935  171.9157 H       1  UNL1        0.1437
     30 H         140.2880  138.5442  171.0426 H       1  UNL1        0.1437
@<TRIPOS>BOND
     1    21    22    1
     2    22    23   ar
     3    23    24   ar
     4    24    25   ar
     5    25    26   ar
     6    26    20    1
     7    20     1    1
     8     1     2   ar
     9     2     3   ar
    10     3     4   ar
    11     4     7    1
    12     7     8    1
    13     8     9    1
    14     9    10    1
    15    10    11    1
    16    11    12    1
    17    12    13    1
    18    13    14    1
    19    14    15    1
    20    10    16    1
    21    16    17    1
    22     4     5   ar
    23     5     6   ar
    24    26    27   ar
    25    27    28    1
    26    27    22   ar
    27     6     1   ar
    28    17     7    1
    29    14    10    1
    30    21    29    1
    31    21    30    1
    32    15    18    1
    33    15    19    1
@<TRIPOS>MOLECULE
*****
 30 33 0 0 0
SMALL
GASTEIGER

@<TRIPOS>ATOM
      1 C         140.7338  139.5516  157.8786 C.ar    1  UNL1        0.1300
      2 C         142.0521  139.0618  158.4004 C.ar    1  UNL1        0.1260
      3 N         142.5903  137.7356  157.9517 N.ar    1  UNL1       -0.2254
      4 C         141.8102  136.8990  156.9813 C.ar    1  UNL1        0.1511
      5 C         140.4919  137.3887  156.4596 C.ar    1  UNL1        0.1336
      6 N         139.9537  138.7151  156.9083 N.ar    1  UNL1       -0.2328
      7 N         142.3485  135.5727  156.5327 N.pl3   1  UNL1       -0.2920
      8 C         143.4690  134.9233  157.2893 C.3     1  UNL1        0.0922
      9 C         144.0072  133.5970  156.8407 C.3     1  UNL1        0.0228
     10 C         143.4249  132.9202  155.6354 C.3     1  UNL1        0.0163
     11 C         142.9458  132.1278  154.4552 C.3     1  UNL1        0.0014
     12 C         143.7615  130.8713  154.3785 C.3     1  UNL1        0.0014
     13 C         144.7447  130.8871  155.5113 C.3     1  UNL1        0.0155
     14 C         144.5367  132.1533  156.2881 C.3     1  UNL1        0.0508
     15 N         145.3053  132.5782  157.5040 N.3     1  UNL1       -0.3222
     16 C         142.3043  133.5696  154.8787 C.3     1  UNL1        0.0228
     17 C         141.7661  134.8959  155.3274 C.3     1  UNL1        0.0922
     18 H         144.9566  133.4801  157.8287 H       1  UNL1        0.1188
     19 H         146.2945  132.6607  157.2692 H       1  UNL1        0.1188
     20 S         140.1956  140.8779  158.3273 S.3     1  UNL1       -0.0655
     21 N         137.7611  143.6787  161.9643 N.pl3   1  UNL1       -0.3419
     22 C         138.0584  142.3532  161.3282 C.ar    1  UNL1        0.1365
     23 N         137.4358  141.1026  161.8745 N.ar    1  UNL1       -0.2287
     24 C         137.7331  139.7772  161.2384 C.ar    1  UNL1        0.1009
     25 C         138.6531  139.7022  160.0560 C.ar    1  UNL1        0.0281
     26 C         139.2757  140.9528  159.5097 C.ar    1  UNL1        0.0457
     27 C         138.9783  142.2783  160.1458 C.ar    1  UNL1        0.0947
     28 CL        139.6009  143.5289  159.5995 Cl      1  UNL1       -0.0788
     29 H         137.1573  143.7279  162.7404 H       1  UNL1        0.1437
     30 H         138.1697  144.4995  161.6058 H       1  UNL1        0.1437
@<TRIPOS>BOND
     1    21    22    1
     2    22    23   ar
     3    23    24   ar
     4    24    25   ar
     5    25    26   ar
     6    26    20    1
     7    20     1    1
     8     1     2   ar
     9     2     3   ar
    10     3     4   ar
    11     4     7    1
    12     7     8    1
    13     8     9    1
    14     9    10    1
    15    10    11    1
    16    11    12    1
    17    12    13    1
    18    13    14    1
    19    14    15    1
    20    10    16    1
    21    16    17    1
    22     4     5   ar
    23     5     6   ar
    24    26    27   ar
    25    27    28    1
    26    27    22   ar
    27     6     1   ar
    28    17     7    1
    29    14    10    1
    30    21    29    1
    31    21    30    1
    32    15    18    1
    33    15    19    1
@<TRIPOS>MOLECULE
*****
 30 33 0 0 0
SMALL
GASTEIGER

@<TRIPOS>ATOM
      1 C         142.2497  136.6863  156.8254 C.ar    1  UNL1        0.1300
      2 C         140.8083  137.0247  156.5844 C.ar    1  UNL1        0.1260
      3 N         140.0847  137.9391  157.5280 N.ar    1  UNL1       -0.2254
      4 C         140.8025  138.5151  158.7125 C.ar    1  UNL1        0.1511
      5 C         142.2438  138.1767  158.9535 C.ar    1  UNL1        0.1336
      6 N         142.9674  137.2623  158.0099 N.ar    1  UNL1       -0.2328
      7 N         140.0788  139.4295  159.6560 N.pl3   1  UNL1       -0.2920
      8 C         140.0805  140.9100  159.4149 C.3     1  UNL1        0.0922
      9 C         139.3569  141.8243  160.3585 C.3     1  UNL1        0.0228
     10 C         138.6315  141.2582  161.5431 C.3     1  UNL1        0.0163
     11 C         137.8666  140.8397  162.7636 C.3     1  UNL1        0.0014
     12 C         137.3080  142.0745  163.4067 C.3     1  UNL1        0.0014
     13 C         137.7279  143.2561  162.5835 C.3     1  UNL1        0.0155
     14 C         138.5458  142.7516  161.4318 C.3     1  UNL1        0.0508
     15 N         139.1687  143.5928  160.3574 N.3     1  UNL1       -0.3222
     16 C         138.6298  139.7777  161.7842 C.3     1  UNL1        0.0228
     17 C         139.3534  138.8634  160.8407 C.3     1  UNL1        0.0922
     18 H         139.6679  142.9918  159.7016 H       1  UNL1        0.1188
     19 H         139.8221  144.2532  160.7785 H       1  UNL1        0.1188
     20 S         142.9733  135.7719  155.8819 S.3     1  UNL1       -0.0655
     21 N         143.3146  130.9063  157.6732 N.pl3   1  UNL1       -0.3419
     22 C         142.7568  131.8925  156.6903 C.ar    1  UNL1        0.1365
     23 N         141.8119  131.4322  155.6201 N.ar    1  UNL1       -0.2287
     24 C         141.2542  132.4184  154.6372 C.ar    1  UNL1        0.1009
     25 C         141.6413  133.8651  154.7244 C.ar    1  UNL1        0.0281
     26 C         142.5862  134.3254  155.7946 C.ar    1  UNL1        0.0457
     27 C         143.1439  133.3390  156.7776 C.ar    1  UNL1        0.0947
     28 CL        144.0888  133.7993  157.8478 Cl      1  UNL1       -0.0788
     29 H         143.0605  129.9569  157.6160 H       1  UNL1        0.1437
     30 H         143.9347  131.2084  158.3756 H       1  UNL1        0.1437
@<TRIPOS>BOND
     1    21    22    1
     2    22    23   ar
     3    23    24   ar
     4    24    25   ar
     5    25    26   ar
     6    26    20    1
     7    20     1    1
     8     1     2   ar
     9     2     3   ar
    10     3     4   ar
    11     4     7    1
    12     7     8    1
    13     8     9    1
    14     9    10    1
    15    10    11    1
    16    11    12    1
    17    12    13    1
    18    13    14    1
    19    14    15    1
    20    10    16    1
    21    16    17    1
    22     4     5   ar
    23     5     6   ar
    24    26    27   ar
    25    27    28    1
    26    27    22   ar
    27     6     1   ar
    28    17     7    1
    29    14    10    1
    30    21    29    1
    31    21    30    1
    32    15    18    1
    33    15    19    1
@<TRIPOS>MOLECULE
*****
 30 33 0 0 0
SMALL
GASTEIGER

@<TRIPOS>ATOM
      1 C         142.3373  137.7700  158.4347 C.ar    1  UNL1        0.1300
      2 C         140.9701  138.3682  158.5866 C.ar    1  UNL1        0.1260
      3 N         140.4081  138.6169  159.9549 N.ar    1  UNL1       -0.2254
      4 C         141.2131  138.2673  161.1713 C.ar    1  UNL1        0.1511
      5 C         142.5802  137.6691  161.0195 C.ar    1  UNL1        0.1336
      6 N         143.1423  137.4204  159.6511 N.ar    1  UNL1       -0.2328
      7 N         140.6510  138.5160  162.5397 N.pl3   1  UNL1       -0.2920
      8 C         141.3446  139.4617  163.4749 C.3     1  UNL1        0.0922
      9 C         140.7825  139.7103  164.8431 C.3     1  UNL1        0.0228
     10 C         139.5268  139.0134  165.2762 C.3     1  UNL1        0.0163
     11 C         138.2859  138.3923  165.8458 C.3     1  UNL1        0.0014
     12 C         138.0990  138.9219  167.2368 C.3     1  UNL1        0.0014
     13 C         139.2245  139.8703  167.5268 C.3     1  UNL1        0.0155
     14 C         140.1069  139.9268  166.3151 C.3     1  UNL1        0.0508
     15 N         141.3509  140.7518  166.1680 N.3     1  UNL1       -0.3222
     16 C         138.8332  138.0678  164.3409 C.3     1  UNL1        0.0228
     17 C         139.3953  137.8191  162.9727 C.3     1  UNL1        0.0922
     18 H         141.7526  140.5993  165.2429 H       1  UNL1        0.1188
     19 H         142.0266  140.4783  166.8814 H       1  UNL1        0.1188
     20 S         142.8993  137.5213  157.0664 S.3     1  UNL1       -0.0655
     21 N         142.2791  132.5030  155.8699 N.pl3   1  UNL1       -0.3419
     22 C         141.9924  133.9493  155.5940 C.ar    1  UNL1        0.1365
     23 N         141.1088  134.3327  154.4441 N.ar    1  UNL1       -0.2287
     24 C         140.8221  135.7789  154.1682 C.ar    1  UNL1        0.1009
     25 C         141.4190  136.8418  155.0424 C.ar    1  UNL1        0.0281
     26 C         142.3025  136.4584  156.1923 C.ar    1  UNL1        0.0457
     27 C         142.5892  135.0121  156.4681 C.ar    1  UNL1        0.0947
     28 CL        143.4727  134.6287  157.6181 Cl      1  UNL1       -0.0788
     29 H         141.8874  131.8054  155.2961 H       1  UNL1        0.1437
     30 H         142.8590  132.2514  156.6246 H       1  UNL1        0.1437
@<TRIPOS>BOND
     1    21    22    1
     2    22    23   ar
     3    23    24   ar
     4    24    25   ar
     5    25    26   ar
     6    26    20    1
     7    20     1    1
     8     1     2   ar
     9     2     3   ar
    10     3     4   ar
    11     4     7    1
    12     7     8    1
    13     8     9    1
    14     9    10    1
    15    10    11    1
    16    11    12    1
    17    12    13    1
    18    13    14    1
    19    14    15    1
    20    10    16    1
    21    16    17    1
    22     4     5   ar
    23     5     6   ar
    24    26    27   ar
    25    27    28    1
    26    27    22   ar
    27     6     1   ar
    28    17     7    1
    29    14    10    1
    30    21    29    1
    31    21    30    1
    32    15    18    1
    33    15    19    1
@<TRIPOS>MOLECULE
*****
 30 33 0 0 0
SMALL
GASTEIGER

@<TRIPOS>ATOM
      1 C         142.4163  138.4233  161.0335 C.ar    1  UNL1        0.1300
      2 C         142.9720  139.6346  161.7219 C.ar    1  UNL1        0.1260
      3 N         142.6027  139.9230  163.1468 N.ar    1  UNL1       -0.2254
      4 C         141.6778  139.0001  163.8834 C.ar    1  UNL1        0.1511
      5 C         141.1221  137.7887  163.1951 C.ar    1  UNL1        0.1336
      6 N         141.4913  137.5003  161.7701 N.ar    1  UNL1       -0.2328
      7 N         141.3085  139.2885  165.3084 N.pl3   1  UNL1       -0.2920
      8 C         142.3719  139.3273  166.3656 C.3     1  UNL1        0.0922
      9 C         142.0026  139.6157  167.7905 C.3     1  UNL1        0.0228
     10 C         140.5700  139.8653  168.1582 C.3     1  UNL1        0.0163
     11 C         139.1871  140.1333  168.6737 C.3     1  UNL1        0.0014
     12 C         139.2812  140.3700  170.1520 C.3     1  UNL1        0.0014
     13 C         140.7223  140.2483  170.5501 C.3     1  UNL1        0.0155
     14 C         141.5188  139.9364  169.3179 C.3     1  UNL1        0.0508
     15 N         143.0034  139.7316  169.2561 N.3     1  UNL1       -0.3222
     16 C         139.5066  139.8265  167.1010 C.3     1  UNL1        0.0228
     17 C         139.8759  139.5381  165.6761 C.3     1  UNL1        0.0922
     18 H         143.2796  139.5334  168.2944 H       1  UNL1        0.1188
     19 H         143.2635  138.9465  169.8532 H       1  UNL1        0.1188
     20 S         142.7855  138.1349  159.6086 S.3     1  UNL1       -0.0655
     21 N         140.8645  136.3079  155.1397 N.pl3   1  UNL1       -0.3419
     22 C         140.7714  137.2456  156.3067 C.ar    1  UNL1        0.1365
     23 N         139.6248  138.2075  156.4064 N.ar    1  UNL1       -0.2287
     24 C         139.5317  139.1452  157.5734 C.ar    1  UNL1        0.1009
     25 C         140.5853  139.1210  158.6409 C.ar    1  UNL1        0.0281
     26 C         141.7320  138.1591  158.5412 C.ar    1  UNL1        0.0457
     27 C         141.8250  137.2214  157.3741 C.ar    1  UNL1        0.0947
     28 CL        142.9716  136.2595  157.2744 Cl      1  UNL1       -0.0788
     29 H         140.1730  136.3238  154.4391 H       1  UNL1        0.1437
     30 H         141.6171  135.6766  155.0743 H       1  UNL1        0.1437
@<TRIPOS>BOND
     1    21    22    1
     2    22    23   ar
     3    23    24   ar
     4    24    25   ar
     5    25    26   ar
     6    26    20    1
     7    20     1    1
     8     1     2   ar
     9     2     3   ar
    10     3     4   ar
    11     4     7    1
    12     7     8    1
    13     8     9    1
    14     9    10    1
    15    10    11    1
    16    11    12    1
    17    12    13    1
    18    13    14    1
    19    14    15    1
    20    10    16    1
    21    16    17    1
    22     4     5   ar
    23     5     6   ar
    24    26    27   ar
    25    27    28    1
    26    27    22   ar
    27     6     1   ar
    28    17     7    1
    29    14    10    1
    30    21    29    1
    31    21    30    1
    32    15    18    1
    33    15    19    1
@<TRIPOS>MOLECULE
*****
 30 33 0 0 0
SMALL
GASTEIGER

@<TRIPOS>ATOM
      1 C         142.5191  142.2859  166.4368 C.ar    1  UNL1        0.1300
      2 C         141.0977  142.1704  165.9714 C.ar    1  UNL1        0.1260
      3 N         140.7539  142.4419  164.5368 N.ar    1  UNL1       -0.2254
      4 C         141.8313  142.8290  163.5676 C.ar    1  UNL1        0.1511
      5 C         143.2526  142.9445  164.0330 C.ar    1  UNL1        0.1336
      6 N         143.5965  142.6730  165.4676 N.ar    1  UNL1       -0.2328
      7 N         141.4874  143.1006  162.1330 N.pl3   1  UNL1       -0.2920
      8 C         140.1158  142.7804  161.6170 C.3     1  UNL1        0.0922
      9 C         139.7720  143.0519  160.1825 C.3     1  UNL1        0.0228
     10 C         140.7996  143.6437  159.2639 C.3     1  UNL1        0.0163
     11 C         141.7181  144.2293  158.2327 C.3     1  UNL1        0.0014
     12 C         140.9630  144.3249  156.9401 C.3     1  UNL1        0.0014
     13 C         139.5778  143.7983  157.1725 C.3     1  UNL1        0.0155
     14 C         139.4768  143.3774  158.6086 C.3     1  UNL1        0.0508
     15 N         138.2657  142.7927  159.2730 N.3     1  UNL1       -0.3222
     16 C         142.1712  143.9639  159.7799 C.3     1  UNL1        0.0228
     17 C         142.5150  143.6924  161.2145 C.3     1  UNL1        0.0922
     18 H         138.4753  142.5989  160.2522 H       1  UNL1        0.1188
     19 H         138.0054  141.9257  158.8030 H       1  UNL1        0.1188
     20 S         142.8630  142.0143  167.8713 S.3     1  UNL1       -0.0655
     21 N         139.9003  139.4060  171.2505 N.pl3   1  UNL1       -0.3419
     22 C         140.3014  140.6975  170.6016 C.ar    1  UNL1        0.1365
     23 N         139.6224  141.9763  170.9934 N.ar    1  UNL1       -0.2287
     24 C         140.0236  143.2678  170.3445 C.ar    1  UNL1        0.1009
     25 C         141.1038  143.2805  169.3038 C.ar    1  UNL1        0.0281
     26 C         141.7828  142.0017  168.9120 C.ar    1  UNL1        0.0457
     27 C         141.3816  140.7101  169.5609 C.ar    1  UNL1        0.0947
     28 CL        142.0606  139.4313  169.1691 Cl      1  UNL1       -0.0788
     29 H         139.1913  139.3977  171.9335 H       1  UNL1        0.1437
     30 H         140.3459  138.5667  170.9933 H       1  UNL1        0.1437
@<TRIPOS>BOND
     1    21    22    1
     2    22    23   ar
     3    23    24   ar
     4    24    25   ar
     5    25    26   ar
     6    26    20    1
     7    20     1    1
     8     1     2   ar
     9     2     3   ar
    10     3     4   ar
    11     4     7    1
    12     7     8    1
    13     8     9    1
    14     9    10    1
    15    10    11    1
    16    11    12    1
    17    12    13    1
    18    13    14    1
    19    14    15    1
    20    10    16    1
    21    16    17    1
    22     4     5   ar
    23     5     6   ar
    24    26    27   ar
    25    27    28    1
    26    27    22   ar
    27     6     1   ar
    28    17     7    1
    29    14    10    1
    30    21    29    1
    31    21    30    1
    32    15    18    1
    33    15    19    1
@<TRIPOS>MOLECULE
*****
 30 33 0 0 0
SMALL
GASTEIGER

@<TRIPOS>ATOM
      1 C         140.0133  145.1685  156.8223 C.ar    1  UNL1        0.1300
      2 C         141.2798  145.8835  157.1895 C.ar    1  UNL1        0.1260
      3 N         141.9997  145.5307  158.4572 N.ar    1  UNL1       -0.2254
      4 C         141.4532  144.4630  159.3579 C.ar    1  UNL1        0.1511
      5 C         140.1867  143.7480  158.9908 C.ar    1  UNL1        0.1336
      6 N         139.4667  144.1007  157.7230 N.ar    1  UNL1       -0.2328
      7 N         142.1732  144.1103  160.6257 N.pl3   1  UNL1       -0.2920
      8 C         143.4068  143.2585  160.5755 C.3     1  UNL1        0.0922
      9 C         144.1267  142.9058  161.8433 C.3     1  UNL1        0.0228
     10 C         143.6131  143.4049  163.1612 C.3     1  UNL1        0.0163
     11 C         143.2201  143.8286  164.5455 C.3     1  UNL1        0.0014
     12 C         144.2166  143.2521  165.5072 C.3     1  UNL1        0.0014
     13 C         145.2254  142.4721  164.7172 C.3     1  UNL1        0.0155
     14 C         144.8524  142.5665  163.2674 C.3     1  UNL1        0.0508
     15 N         145.5893  141.9338  162.1244 N.3     1  UNL1       -0.3222
     16 C         142.3794  144.2567  163.2114 C.3     1  UNL1        0.0228
     17 C         141.6595  144.6094  161.9436 C.3     1  UNL1        0.0922
     18 H         145.1175  142.1599  161.2488 H       1  UNL1        0.1188
     19 H         145.6067  140.9216  162.2497 H       1  UNL1        0.1188
     20 S         139.2933  145.5212  155.5546 S.3     1  UNL1       -0.0655
     21 N         139.9056  150.4210  153.9369 N.pl3   1  UNL1       -0.3419
     22 C         140.2025  148.9580  153.7905 C.ar    1  UNL1        0.1365
     23 N         141.1024  148.4819  152.6890 N.ar    1  UNL1       -0.2287
     24 C         141.3994  147.0189  152.5426 C.ar    1  UNL1        0.1009
     25 C         140.7963  146.0319  153.4979 C.ar    1  UNL1        0.0281
     26 C         139.8964  146.5081  154.5994 C.ar    1  UNL1        0.0457
     27 C         139.5995  147.9711  154.7457 C.ar    1  UNL1        0.0947
     28 CL        138.6995  148.4473  155.8473 Cl      1  UNL1       -0.0788
     29 H         140.3013  151.0687  153.3100 H       1  UNL1        0.1437
     30 H         139.3149  150.7335  154.6599 H       1  UNL1        0.1437
@<TRIPOS>BOND
     1    21    22    1
     2    22    23   ar
     3    23    24   ar
     4    24    25   ar
     5    25    26   ar
     6    26    20    1
     7    20     1    1
     8     1     2   ar
     9     2     3   ar
    10     3     4   ar
    11     4     7    1
    12     7     8    1
    13     8     9    1
    14     9    10    1
    15    10    11    1
    16    11    12    1
    17    12    13    1
    18    13    14    1
    19    14    15    1
    20    10    16    1
    21    16    17    1
    22     4     5   ar
    23     5     6   ar
    24    26    27   ar
    25    27    28    1
    26    27    22   ar
    27     6     1   ar
    28    17     7    1
    29    14    10    1
    30    21    29    1
    31    21    30    1
    32    15    18    1
    33    15    19    1
@<TRIPOS>MOLECULE
*****
 30 33 0 0 0
SMALL
GASTEIGER

@<TRIPOS>ATOM
      1 C         141.5846  140.3173  160.2338 C.ar    1  UNL1        0.1300
      2 C         141.3289  141.5807  161.0010 C.ar    1  UNL1        0.1260
      3 N         141.1568  141.5320  162.4903 N.ar    1  UNL1       -0.2254
      4 C         141.2404  140.2200  163.2125 C.ar    1  UNL1        0.1511
      5 C         141.4961  138.9566  162.4454 C.ar    1  UNL1        0.1336
      6 N         141.6682  139.0053  160.9560 N.ar    1  UNL1       -0.2328
      7 N         141.0683  140.1713  164.7018 N.pl3   1  UNL1       -0.2920
      8 C         142.1761  139.6496  165.5682 C.3     1  UNL1        0.0922
      9 C         142.0039  139.6009  167.0574 C.3     1  UNL1        0.0228
     10 C         140.7240  140.0741  167.6803 C.3     1  UNL1        0.0163
     11 C         139.5076  140.5102  168.4420 C.3     1  UNL1        0.0014
     12 C         139.7699  140.2864  169.9019 C.3     1  UNL1        0.0014
     13 C         141.1484  139.7120  170.0425 C.3     1  UNL1        0.0155
     14 C         141.7381  139.5808  168.6695 C.3     1  UNL1        0.0508
     15 N         143.1023  139.0495  168.3429 N.3     1  UNL1       -0.3222
     16 C         139.6163  140.5958  166.8140 C.3     1  UNL1        0.0228
     17 C         139.7884  140.6444  165.3247 C.3     1  UNL1        0.0922
     18 H         143.2433  139.0726  167.3330 H       1  UNL1        0.1188
     19 H         143.1815  138.0885  168.6755 H       1  UNL1        0.1188
     20 S         141.7567  140.3660  158.7446 S.3     1  UNL1       -0.0655
     21 N         138.9073  136.9368  156.0761 N.pl3   1  UNL1       -0.3419
     22 C         140.2363  137.3910  156.6027 C.ar    1  UNL1        0.1365
     23 N         141.4697  136.5848  156.3217 N.ar    1  UNL1       -0.2287
     24 C         142.7987  137.0391  156.8483 C.ar    1  UNL1        0.1009
     25 C         142.8944  138.2995  157.6560 C.ar    1  UNL1        0.0281
     26 C         141.6611  139.1056  157.9370 C.ar    1  UNL1        0.0457
     27 C         140.3320  138.6514  157.4103 C.ar    1  UNL1        0.0947
     28 CL        139.0986  139.4575  157.6913 Cl      1  UNL1       -0.0788
     29 H         138.8445  136.1096  155.5460 H       1  UNL1        0.1437
     30 H         138.0978  137.4659  156.2605 H       1  UNL1        0.1437
@<TRIPOS>BOND
     1    21    22    1
     2    22    23   ar
     3    23    24   ar
     4    24    25   ar
     5    25    26   ar
     6    26    20    1
     7    20     1    1
     8     1     2   ar
     9     2     3   ar
    10     3     4   ar
    11     4     7    1
    12     7     8    1
    13     8     9    1
    14     9    10    1
    15    10    11    1
    16    11    12    1
    17    12    13    1
    18    13    14    1
    19    14    15    1
    20    10    16    1
    21    16    17    1
    22     4     5   ar
    23     5     6   ar
    24    26    27   ar
    25    27    28    1
    26    27    22   ar
    27     6     1   ar
    28    17     7    1
    29    14    10    1
    30    21    29    1
    31    21    30    1
    32    15    18    1
    33    15    19    1
@<TRIPOS>MOLECULE
*****
 30 33 0 0 0
SMALL
GASTEIGER

@<TRIPOS>ATOM
      1 C         139.9910  142.2604  161.2210 C.ar    1  UNL1        0.1300
      2 C         141.1571  141.4216  161.6533 C.ar    1  UNL1        0.1260
      3 N         141.4855  141.2880  163.1108 N.ar    1  UNL1       -0.2254
      4 C         140.6478  141.9931  164.1360 C.ar    1  UNL1        0.1511
      5 C         139.4817  142.8318  163.7038 C.ar    1  UNL1        0.1336
      6 N         139.1533  142.9655  162.2463 N.ar    1  UNL1       -0.2328
      7 N         140.9762  141.8595  165.5936 N.pl3   1  UNL1       -0.2920
      8 C         140.3907  142.8203  166.5855 C.3     1  UNL1        0.0922
      9 C         140.7192  142.6867  168.0429 C.3     1  UNL1        0.0228
     10 C         141.6331  141.5922  168.5085 C.3     1  UNL1        0.0163
     11 C         142.5266  140.5536  169.1193 C.3     1  UNL1        0.0014
     12 C         142.5714  140.7932  170.5995 C.3     1  UNL1        0.0014
     13 C         141.7057  141.9799  170.9033 C.3     1  UNL1        0.0155
     14 C         141.1258  142.4737  169.6111 C.3     1  UNL1        0.0508
     15 N         140.2009  143.6435  169.4497 N.3     1  UNL1       -0.3222
     16 C         142.2187  140.6314  167.5166 C.3     1  UNL1        0.0228
     17 C         141.8902  140.7650  166.0591 C.3     1  UNL1        0.0922
     18 H         139.9626  143.7550  168.4642 H       1  UNL1        0.1188
     19 H         140.6609  144.4895  169.7861 H       1  UNL1        0.1188
     20 S         139.6626  142.3940  159.7635 S.3     1  UNL1       -0.0655
     21 N         142.4754  146.2463  157.7028 N.pl3   1  UNL1       -0.3419
     22 C         142.1166  144.7914  157.7685 C.ar    1  UNL1        0.1365
     23 N         142.8052  143.8077  156.8696 N.ar    1  UNL1       -0.2287
     24 C         142.4464  142.3528  156.9353 C.ar    1  UNL1        0.1009
     25 C         141.3988  141.8815  157.9000 C.ar    1  UNL1        0.0281
     26 C         140.7101  142.8652  158.7989 C.ar    1  UNL1        0.0457
     27 C         141.0690  144.3202  158.7332 C.ar    1  UNL1        0.0947
     28 CL        140.3804  145.3039  159.6321 Cl      1  UNL1       -0.0788
     29 H         143.1630  146.5557  157.0697 H       1  UNL1        0.1437
     30 H         142.0234  146.8920  158.2928 H       1  UNL1        0.1437
@<TRIPOS>BOND
     1    21    22    1
     2    22    23   ar
     3    23    24   ar
     4    24    25   ar
     5    25    26   ar
     6    26    20    1
     7    20     1    1
     8     1     2   ar
     9     2     3   ar
    10     3     4   ar
    11     4     7    1
    12     7     8    1
    13     8     9    1
    14     9    10    1
    15    10    11    1
    16    11    12    1
    17    12    13    1
    18    13    14    1
    19    14    15    1
    20    10    16    1
    21    16    17    1
    22     4     5   ar
    23     5     6   ar
    24    26    27   ar
    25    27    28    1
    26    27    22   ar
    27     6     1   ar
    28    17     7    1
    29    14    10    1
    30    21    29    1
    31    21    30    1
    32    15    18    1
    33    15    19    1
