@<TRIPOS>MOLECULE
*****
 34 38 0 0 0
SMALL
GASTEIGER

@<TRIPOS>ATOM
      1 N         142.2797  141.4447  165.2400 N.am    1  UNL1       -0.2509
      2 C         141.4165  140.9580  164.1140 C.2     1  UNL1        0.2530
      3 O         140.5804  139.7127  164.1188 O.2     1  UNL1       -0.2696
      4 C         141.5361  141.9353  162.9824 C.2     1  UNL1        0.0551
      5 C         140.8406  141.8389  161.6568 C.2     1  UNL1        0.0044
      6 C         142.4733  143.0261  163.4090 C.ar    1  UNL1        0.0181
      7 C         142.9676  144.2561  162.7072 C.ar    1  UNL1        0.0014
      8 C         143.9214  145.1830  163.4007 C.ar    1  UNL1        0.0001
      9 C         144.3810  144.8798  164.7960 C.ar    1  UNL1        0.0013
     10 C         143.8868  143.6497  165.4978 C.ar    1  UNL1        0.0149
     11 C         142.9329  142.7228  164.8043 C.ar    1  UNL1        0.0545
     12 C         141.0585  142.8974  160.6168 C.ar    1  UNL1        0.0002
     13 C         142.1721  142.7538  159.6221 C.ar    1  UNL1        0.0009
     14 C         142.3899  143.8124  158.5820 C.ar    1  UNL1        0.0114
     15 C         141.4942  145.0147  158.5365 C.ar    1  UNL1        0.0577
     16 CL        141.7120  146.0733  157.4964 Cl      1  UNL1       -0.0822
     17 C         140.3806  145.1585  159.5311 C.ar    1  UNL1        0.0114
     18 C         140.1628  144.0998  160.5712 C.ar    1  UNL1        0.0009
     19 C         139.9272  140.6837  161.3714 C.ar    1  UNL1        0.0001
     20 C         140.4826  139.4105  160.8053 C.ar    1  UNL1        0.0000
     21 C         139.5693  138.2554  160.5198 C.ar    1  UNL1        0.0000
     22 C         138.1005  138.3735  160.8005 C.ar    1  UNL1        0.0000
     23 C         137.5451  139.6467  161.3666 C.ar    1  UNL1        0.0000
     24 C         138.4584  140.8019  161.6521 C.ar    1  UNL1        0.0000
     25 C         142.4585  140.7716  166.5685 C.3     1  UNL1        0.1250
     26 C         140.1943  141.7839  169.6665 C.ar    1  UNL1        0.0137
     27 C         139.0964  140.7674  169.5595 C.ar    1  UNL1        0.0011
     28 C         139.1192  139.7523  168.4554 C.ar    1  UNL1       -0.0002
     29 C         140.2399  139.7537  167.4584 C.ar    1  UNL1       -0.0026
     30 C         141.3379  140.7702  167.5654 C.ar    1  UNL1       -0.0020
     31 C         141.3150  141.7853  168.6696 C.ar    1  UNL1       -0.0015
     32 O         140.0041  144.2543  170.4481 O.co2   1  UNL1       -0.5446
     33 C         140.1714  142.7990  170.7707 C.2     1  UNL1        0.0729
     34 O         140.3158  142.3588  172.1973 O.co2   1  UNL1       -0.5446
@<TRIPOS>UNITY_ATOM_ATTR
32 1
charge -1
@<TRIPOS>BOND
     1    32    33   ar
     2    33    34   ar
     3    33    26    1
     4    26    27   ar
     5    27    28   ar
     6    28    29   ar
     7    29    30   ar
     8    30    25    1
     9    25     1    1
    10     1     2   am
    11     2     3    2
    12     2     4    1
    13     4     5    2
    14     5    19    1
    15    19    20   ar
    16    20    21   ar
    17    21    22   ar
    18    22    23   ar
    19    23    24   ar
    20     5    12    1
    21    12    13   ar
    22    13    14   ar
    23    14    15   ar
    24    15    16    1
    25    15    17   ar
    26    17    18   ar
    27     4     6    1
    28     6     7   ar
    29     7     8   ar
    30     8     9   ar
    31     9    10   ar
    32    10    11   ar
    33    30    31   ar
    34    31    26   ar
    35    11     1    1
    36    24    19   ar
    37    18    12   ar
    38    11     6   ar
@<TRIPOS>MOLECULE
*****
 34 38 0 0 0
SMALL
GASTEIGER

@<TRIPOS>ATOM
      1 N         139.3201  140.3141  163.8266 N.am    1  UNL1       -0.2509
      2 C         140.0242  139.9719  162.5471 C.2     1  UNL1        0.2530
      3 O         140.6440  138.6487  162.2084 O.2     1  UNL1       -0.2696
      4 C         139.9996  141.1855  161.6658 C.2     1  UNL1        0.0551
      5 C         140.5906  141.2888  160.2910 C.2     1  UNL1        0.0044
      6 C         139.2804  142.2776  162.4006 C.ar    1  UNL1        0.0181
      7 C         138.9536  143.6928  162.0262 C.ar    1  UNL1        0.0014
      8 C         138.2068  144.5695  162.9873 C.ar    1  UNL1        0.0001
      9 C         137.7869  144.0309  164.3228 C.ar    1  UNL1        0.0013
     10 C         138.1136  142.6157  164.6972 C.ar    1  UNL1        0.0149
     11 C         138.8604  141.7390  163.7361 C.ar    1  UNL1        0.0545
     12 C         140.4880  142.5744  159.5251 C.ar    1  UNL1        0.0002
     13 C         139.4016  142.7563  158.5069 C.ar    1  UNL1        0.0009
     14 C         139.2990  144.0420  157.7411 C.ar    1  UNL1        0.0114
     15 C         140.2828  145.1458  157.9934 C.ar    1  UNL1        0.0577
     16 CL        140.1802  146.4315  157.2276 Cl      1  UNL1       -0.0822
     17 C         141.3692  144.9640  159.0116 C.ar    1  UNL1        0.0114
     18 C         141.4718  143.6783  159.7775 C.ar    1  UNL1        0.0009
     19 C         141.2842  140.1063  159.6819 C.ar    1  UNL1        0.0001
     20 C         140.5398  139.1997  158.7472 C.ar    1  UNL1        0.0000
     21 C         141.2333  138.0173  158.1382 C.ar    1  UNL1        0.0000
     22 C         142.6713  137.7416  158.4639 C.ar    1  UNL1        0.0000
     23 C         143.4157  138.6483  159.3986 C.ar    1  UNL1        0.0000
     24 C         142.7222  139.8307  160.0076 C.ar    1  UNL1        0.0000
     25 C         139.1122  139.3930  164.9921 C.3     1  UNL1        0.1250
     26 C         140.0633  140.0567  168.7874 C.ar    1  UNL1        0.0137
     27 C         141.5555  139.9131  168.7351 C.ar    1  UNL1        0.0011
     28 C         142.2333  139.5961  167.4350 C.ar    1  UNL1       -0.0002
     29 C         141.4188  139.4227  166.1874 C.ar    1  UNL1       -0.0026
     30 C         139.9266  139.5663  166.2397 C.ar    1  UNL1       -0.0020
     31 C         139.2489  139.8833  167.5398 C.ar    1  UNL1       -0.0015
     32 O         138.0089  139.8462  170.3638 O.co2   1  UNL1       -0.5446
     33 C         139.3856  140.3737  170.0875 C.2     1  UNL1        0.0729
     34 O         140.0846  141.2181  171.1114 O.co2   1  UNL1       -0.5446
@<TRIPOS>UNITY_ATOM_ATTR
32 1
charge -1
@<TRIPOS>BOND
     1    32    33   ar
     2    33    34   ar
     3    33    26    1
     4    26    27   ar
     5    27    28   ar
     6    28    29   ar
     7    29    30   ar
     8    30    25    1
     9    25     1    1
    10     1     2   am
    11     2     3    2
    12     2     4    1
    13     4     5    2
    14     5    19    1
    15    19    20   ar
    16    20    21   ar
    17    21    22   ar
    18    22    23   ar
    19    23    24   ar
    20     5    12    1
    21    12    13   ar
    22    13    14   ar
    23    14    15   ar
    24    15    16    1
    25    15    17   ar
    26    17    18   ar
    27     4     6    1
    28     6     7   ar
    29     7     8   ar
    30     8     9   ar
    31     9    10   ar
    32    10    11   ar
    33    30    31   ar
    34    31    26   ar
    35    11     1    1
    36    24    19   ar
    37    18    12   ar
    38    11     6   ar
@<TRIPOS>MOLECULE
*****
 34 38 0 0 0
SMALL
GASTEIGER

@<TRIPOS>ATOM
      1 N         139.9078  140.0979  161.4832 N.am    1  UNL1       -0.2509
      2 C         140.7231  141.1638  162.1533 C.2     1  UNL1        0.2530
      3 O         141.3554  142.3450  161.4788 O.2     1  UNL1       -0.2696
      4 C         140.7953  140.8410  163.6164 C.2     1  UNL1        0.0551
      5 C         141.5123  141.6428  164.6618 C.2     1  UNL1        0.0044
      6 C         140.0244  139.5757  163.8505 C.ar    1  UNL1        0.0181
      7 C         139.7511  138.7824  165.0938 C.ar    1  UNL1        0.0014
      8 C         138.9293  137.5298  165.0187 C.ar    1  UNL1        0.0001
      9 C         138.3808  137.0706  163.7003 C.ar    1  UNL1        0.0013
     10 C         138.6541  137.8639  162.4570 C.ar    1  UNL1        0.0149
     11 C         139.4759  139.1164  162.5321 C.ar    1  UNL1        0.0545
     12 C         141.4969  141.1938  166.0929 C.ar    1  UNL1        0.0002
     13 C         142.5595  140.2637  166.5987 C.ar    1  UNL1        0.0009
     14 C         142.5441  139.8147  168.0298 C.ar    1  UNL1        0.0114
     15 C         141.4660  140.2957  168.9552 C.ar    1  UNL1        0.0577
     16 CL        141.4505  139.8467  170.3863 Cl      1  UNL1       -0.0822
     17 C         140.4033  141.2257  168.4495 C.ar    1  UNL1        0.0114
     18 C         140.4188  141.6747  167.0183 C.ar    1  UNL1        0.0009
     19 C         142.2448  142.8937  164.2762 C.ar    1  UNL1        0.0001
     20 C         141.5176  144.2049  164.2305 C.ar    1  UNL1        0.0000
     21 C         142.2500  145.4558  163.8449 C.ar    1  UNL1        0.0000
     22 C         143.7098  145.3955  163.5049 C.ar    1  UNL1        0.0000
     23 C         144.4370  144.0844  163.5506 C.ar    1  UNL1        0.0000
     24 C         143.7046  142.8335  163.9362 C.ar    1  UNL1        0.0000
     25 C         139.5814  140.0262  160.0208 C.3     1  UNL1        0.1250
     26 C         140.5153  137.6325  156.9963 C.ar    1  UNL1        0.0137
     27 C         141.9451  137.3132  157.3185 C.ar    1  UNL1        0.0011
     28 C         142.5870  137.8982  158.5415 C.ar    1  UNL1       -0.0002
     29 C         141.7991  138.8026  159.4422 C.ar    1  UNL1       -0.0026
     30 C         140.3693  139.1219  159.1201 C.ar    1  UNL1       -0.0020
     31 C         139.7274  138.5368  157.8971 C.ar    1  UNL1       -0.0015
     32 O         138.3804  136.9277  155.6943 O.co2   1  UNL1       -0.5446
     33 C         139.8735  137.0474  155.7733 C.2     1  UNL1        0.0729
     34 O         140.7247  136.5820  154.6293 O.co2   1  UNL1       -0.5446
@<TRIPOS>UNITY_ATOM_ATTR
32 1
charge -1
@<TRIPOS>BOND
     1    32    33   ar
     2    33    34   ar
     3    33    26    1
     4    26    27   ar
     5    27    28   ar
     6    28    29   ar
     7    29    30   ar
     8    30    25    1
     9    25     1    1
    10     1     2   am
    11     2     3    2
    12     2     4    1
    13     4     5    2
    14     5    19    1
    15    19    20   ar
    16    20    21   ar
    17    21    22   ar
    18    22    23   ar
    19    23    24   ar
    20     5    12    1
    21    12    13   ar
    22    13    14   ar
    23    14    15   ar
    24    15    16    1
    25    15    17   ar
    26    17    18   ar
    27     4     6    1
    28     6     7   ar
    29     7     8   ar
    30     8     9   ar
    31     9    10   ar
    32    10    11   ar
    33    30    31   ar
    34    31    26   ar
    35    11     1    1
    36    24    19   ar
    37    18    12   ar
    38    11     6   ar
@<TRIPOS>MOLECULE
*****
 34 38 0 0 0
SMALL
GASTEIGER

@<TRIPOS>ATOM
      1 N         141.0209  142.1773  164.9286 N.am    1  UNL1       -0.2509
      2 C         141.5082  141.2963  163.8166 C.2     1  UNL1        0.2530
      3 O         142.6450  140.3211  163.8981 O.2     1  UNL1       -0.2696
      4 C         140.6591  141.5618  162.6089 C.2     1  UNL1        0.0551
      5 C         140.7977  140.8988  161.2706 C.2     1  UNL1        0.0044
      6 C         139.6470  142.6069  162.9745 C.ar    1  UNL1        0.0181
      7 C         138.5508  143.2613  162.1871 C.ar    1  UNL1        0.0014
      8 C         137.6781  144.2960  162.8334 C.ar    1  UNL1        0.0001
      9 C         137.9017  144.6763  164.2671 C.ar    1  UNL1        0.0013
     10 C         138.9979  144.0220  165.0544 C.ar    1  UNL1        0.0149
     11 C         139.8706  142.9872  164.4081 C.ar    1  UNL1        0.0545
     12 C         139.8710  141.2686  160.1507 C.ar    1  UNL1        0.0002
     13 C         138.6772  140.4113  159.8509 C.ar    1  UNL1        0.0009
     14 C         137.7504  140.7813  158.7310 C.ar    1  UNL1        0.0114
     15 C         138.0174  142.0084  157.9108 C.ar    1  UNL1        0.0577
     16 CL        137.0907  142.3783  156.7908 Cl      1  UNL1       -0.0822
     17 C         139.2113  142.8658  158.2105 C.ar    1  UNL1        0.0114
     18 C         140.1380  142.4958  159.3305 C.ar    1  UNL1        0.0009
     19 C         141.8633  139.8657  161.0522 C.ar    1  UNL1        0.0001
     20 C         143.2363  140.2848  160.6172 C.ar    1  UNL1        0.0000
     21 C         144.3017  139.2519  160.3988 C.ar    1  UNL1        0.0000
     22 C         143.9942  137.7998  160.6153 C.ar    1  UNL1        0.0000
     23 C         142.6212  137.3807  161.0503 C.ar    1  UNL1        0.0000
     24 C         141.5557  138.4136  161.2687 C.ar    1  UNL1        0.0000
     25 C         141.5848  142.2376  166.3172 C.3     1  UNL1        0.1250
     26 C         139.8811  142.0078  169.8942 C.ar    1  UNL1        0.0137
     27 C         139.1824  140.6846  169.7909 C.ar    1  UNL1        0.0011
     28 C         139.2845  139.8789  168.5297 C.ar    1  UNL1       -0.0002
     29 C         140.0853  140.3966  167.3719 C.ar    1  UNL1       -0.0026
     30 C         140.7840  141.7200  167.4751 C.ar    1  UNL1       -0.0020
     31 C         140.6819  142.5256  168.7363 C.ar    1  UNL1       -0.0015
     32 O         140.3728  142.2903  172.4296 O.co2   1  UNL1       -0.5446
     33 C         139.7790  142.8134  171.1554 C.2     1  UNL1        0.0729
     34 O         139.0830  144.1421  171.1423 O.co2   1  UNL1       -0.5446
@<TRIPOS>UNITY_ATOM_ATTR
32 1
charge -1
@<TRIPOS>BOND
     1    32    33   ar
     2    33    34   ar
     3    33    26    1
     4    26    27   ar
     5    27    28   ar
     6    28    29   ar
     7    29    30   ar
     8    30    25    1
     9    25     1    1
    10     1     2   am
    11     2     3    2
    12     2     4    1
    13     4     5    2
    14     5    19    1
    15    19    20   ar
    16    20    21   ar
    17    21    22   ar
    18    22    23   ar
    19    23    24   ar
    20     5    12    1
    21    12    13   ar
    22    13    14   ar
    23    14    15   ar
    24    15    16    1
    25    15    17   ar
    26    17    18   ar
    27     4     6    1
    28     6     7   ar
    29     7     8   ar
    30     8     9   ar
    31     9    10   ar
    32    10    11   ar
    33    30    31   ar
    34    31    26   ar
    35    11     1    1
    36    24    19   ar
    37    18    12   ar
    38    11     6   ar
@<TRIPOS>MOLECULE
*****
 34 38 0 0 0
SMALL
GASTEIGER

@<TRIPOS>ATOM
      1 N         142.6338  141.0434  165.4981 N.am    1  UNL1       -0.2509
      2 C         141.7100  140.5800  164.4110 C.2     1  UNL1        0.2530
      3 O         140.9298  139.2989  164.4035 O.2     1  UNL1       -0.2696
      4 C         141.7033  141.6227  163.3327 C.2     1  UNL1        0.0551
      5 C         140.9154  141.5673  162.0576 C.2     1  UNL1        0.0044
      6 C         142.6230  142.7305  163.7534 C.ar    1  UNL1        0.0181
      7 C         143.0112  144.0189  163.0907 C.ar    1  UNL1        0.0014
      8 C         143.9743  144.9493  163.7664 C.ar    1  UNL1        0.0001
      9 C         144.5494  144.5913  165.1047 C.ar    1  UNL1        0.0013
     10 C         144.1613  143.3029  165.7674 C.ar    1  UNL1        0.0149
     11 C         143.1981  142.3724  165.0917 C.ar    1  UNL1        0.0545
     12 C         141.0100  142.6905  161.0680 C.ar    1  UNL1        0.0002
     13 C         142.0221  142.6329  159.9624 C.ar    1  UNL1        0.0009
     14 C         142.1168  143.7562  158.9729 C.ar    1  UNL1        0.0114
     15 C         141.1993  144.9372  159.0888 C.ar    1  UNL1        0.0577
     16 CL        141.2939  146.0605  158.0993 Cl      1  UNL1       -0.0822
     17 C         140.1871  144.9949  160.1944 C.ar    1  UNL1        0.0114
     18 C         140.0925  143.8716  161.1839 C.ar    1  UNL1        0.0009
     19 C         140.0326  140.3886  161.7719 C.ar    1  UNL1        0.0001
     20 C         140.5715  139.2157  161.0077 C.ar    1  UNL1        0.0000
     21 C         139.6888  138.0371  160.7221 C.ar    1  UNL1        0.0000
     22 C         138.2673  138.0313  161.2007 C.ar    1  UNL1        0.0000
     23 C         137.7284  139.2041  161.9650 C.ar    1  UNL1        0.0000
     24 C         138.6110  140.3828  162.2506 C.ar    1  UNL1        0.0000
     25 C         142.9396  140.3070  166.7687 C.3     1  UNL1        0.1250
     26 C         139.9380  140.3687  169.3641 C.ar    1  UNL1        0.0137
     27 C         140.5514  141.1495  170.4885 C.ar    1  UNL1        0.0011
     28 C         141.9610  141.6494  170.3729 C.ar    1  UNL1       -0.0002
     29 C         142.7570  141.3686  169.1329 C.ar    1  UNL1       -0.0026
     30 C         142.1436  140.5878  168.0085 C.ar    1  UNL1       -0.0020
     31 C         140.7340  140.0879  168.1242 C.ar    1  UNL1       -0.0015
     32 O         137.7020  140.2264  170.6794 O.co2   1  UNL1       -0.5446
     33 C         138.5285  139.8688  169.4798 C.2     1  UNL1        0.0729
     34 O         137.9455  139.0114  168.3959 O.co2   1  UNL1       -0.5446
@<TRIPOS>UNITY_ATOM_ATTR
32 1
charge -1
@<TRIPOS>BOND
     1    32    33   ar
     2    33    34   ar
     3    33    26    1
     4    26    27   ar
     5    27    28   ar
     6    28    29   ar
     7    29    30   ar
     8    30    25    1
     9    25     1    1
    10     1     2   am
    11     2     3    2
    12     2     4    1
    13     4     5    2
    14     5    19    1
    15    19    20   ar
    16    20    21   ar
    17    21    22   ar
    18    22    23   ar
    19    23    24   ar
    20     5    12    1
    21    12    13   ar
    22    13    14   ar
    23    14    15   ar
    24    15    16    1
    25    15    17   ar
    26    17    18   ar
    27     4     6    1
    28     6     7   ar
    29     7     8   ar
    30     8     9   ar
    31     9    10   ar
    32    10    11   ar
    33    30    31   ar
    34    31    26   ar
    35    11     1    1
    36    24    19   ar
    37    18    12   ar
    38    11     6   ar
@<TRIPOS>MOLECULE
*****
 34 38 0 0 0
SMALL
GASTEIGER

@<TRIPOS>ATOM
      1 N         139.6104  138.6056  164.1173 N.am    1  UNL1       -0.2509
      2 C         140.8661  139.4259  164.1289 C.2     1  UNL1        0.2530
      3 O         141.7979  139.6280  162.9709 O.2     1  UNL1       -0.2696
      4 C         141.0265  140.0086  165.5017 C.2     1  UNL1        0.0551
      5 C         142.1469  140.8957  165.9577 C.2     1  UNL1        0.0044
      6 C         139.8699  139.5484  166.3387 C.ar    1  UNL1        0.0181
      7 C         139.5006  139.8069  167.7693 C.ar    1  UNL1        0.0014
      8 C         138.2560  139.1984  168.3443 C.ar    1  UNL1        0.0001
      9 C         137.3808  138.3313  167.4887 C.ar    1  UNL1        0.0013
     10 C         137.7501  138.0728  166.0580 C.ar    1  UNL1        0.0149
     11 C         138.9946  138.6813  165.4830 C.ar    1  UNL1        0.0545
     12 C         142.1739  141.4048  167.3683 C.ar    1  UNL1        0.0002
     13 C         143.0092  140.7082  168.4013 C.ar    1  UNL1        0.0009
     14 C         143.0361  141.2174  169.8119 C.ar    1  UNL1        0.0114
     15 C         142.2279  142.4232  170.1897 C.ar    1  UNL1        0.0577
     16 CL        142.2548  142.9324  171.6003 Cl      1  UNL1       -0.0822
     17 C         141.3926  143.1199  169.1567 C.ar    1  UNL1        0.0114
     18 C         141.3656  142.6106  167.7461 C.ar    1  UNL1        0.0009
     19 C         143.2404  141.2737  165.0028 C.ar    1  UNL1        0.0001
     20 C         143.1716  142.5757  164.2613 C.ar    1  UNL1        0.0000
     21 C         144.2650  142.9537  163.3065 C.ar    1  UNL1        0.0000
     22 C         145.4271  142.0296  163.0933 C.ar    1  UNL1        0.0000
     23 C         145.4958  140.7276  163.8348 C.ar    1  UNL1        0.0000
     24 C         144.4025  140.3495  164.7896 C.ar    1  UNL1        0.0000
     25 C         139.0658  137.8434  162.9458 C.3     1  UNL1        0.1250
     26 C         139.5190  138.8377  159.1306 C.ar    1  UNL1        0.0137
     27 C         138.4802  139.9108  158.9919 C.ar    1  UNL1        0.0011
     28 C         137.6365  140.2949  160.1713 C.ar    1  UNL1       -0.0002
     29 C         137.8318  139.6057  161.4892 C.ar    1  UNL1       -0.0026
     30 C         138.8707  138.5325  161.6279 C.ar    1  UNL1       -0.0020
     31 C         139.7143  138.1486  160.4485 C.ar    1  UNL1       -0.0015
     32 O         141.7600  138.9840  157.8242 O.co2   1  UNL1       -0.5446
     33 C         140.3626  138.4538  157.9512 C.2     1  UNL1        0.0729
     34 O         139.8088  137.5396  156.8987 O.co2   1  UNL1       -0.5446
@<TRIPOS>UNITY_ATOM_ATTR
32 1
charge -1
@<TRIPOS>BOND
     1    32    33   ar
     2    33    34   ar
     3    33    26    1
     4    26    27   ar
     5    27    28   ar
     6    28    29   ar
     7    29    30   ar
     8    30    25    1
     9    25     1    1
    10     1     2   am
    11     2     3    2
    12     2     4    1
    13     4     5    2
    14     5    19    1
    15    19    20   ar
    16    20    21   ar
    17    21    22   ar
    18    22    23   ar
    19    23    24   ar
    20     5    12    1
    21    12    13   ar
    22    13    14   ar
    23    14    15   ar
    24    15    16    1
    25    15    17   ar
    26    17    18   ar
    27     4     6    1
    28     6     7   ar
    29     7     8   ar
    30     8     9   ar
    31     9    10   ar
    32    10    11   ar
    33    30    31   ar
    34    31    26   ar
    35    11     1    1
    36    24    19   ar
    37    18    12   ar
    38    11     6   ar
@<TRIPOS>MOLECULE
*****
 34 38 0 0 0
SMALL
GASTEIGER

@<TRIPOS>ATOM
      1 N         139.1129  140.1005  163.5443 N.am    1  UNL1       -0.2509
      2 C         140.1464  141.1806  163.6674 C.2     1  UNL1        0.2530
      3 O         140.7668  141.9407  162.5328 O.2     1  UNL1       -0.2696
      4 C         140.4505  141.3671  165.1244 C.2     1  UNL1        0.0551
      5 C         141.4285  142.3466  165.7025 C.2     1  UNL1        0.0044
      6 C         139.6050  140.4023  165.9017 C.ar    1  UNL1        0.0181
      7 C         139.4811  140.1355  167.3725 C.ar    1  UNL1        0.0014
      8 C         138.5304  139.0858  167.8668 C.ar    1  UNL1        0.0001
      9 C         137.7037  138.3030  166.8903 C.ar    1  UNL1        0.0013
     10 C         137.8276  138.5698  165.4194 C.ar    1  UNL1        0.0149
     11 C         138.7783  139.6195  164.9251 C.ar    1  UNL1        0.0545
     12 C         141.6278  142.4198  167.1873 C.ar    1  UNL1        0.0002
     13 C         140.6185  143.1227  168.0459 C.ar    1  UNL1        0.0009
     14 C         140.8178  143.1959  169.5307 C.ar    1  UNL1        0.0114
     15 C         142.0265  142.5661  170.1572 C.ar    1  UNL1        0.0577
     16 CL        142.2258  142.6393  171.6421 Cl      1  UNL1       -0.0822
     17 C         143.0359  141.8631  169.2987 C.ar    1  UNL1        0.0114
     18 C         142.8365  141.7899  167.8138 C.ar    1  UNL1        0.0009
     19 C         142.2073  143.2529  164.7957 C.ar    1  UNL1        0.0001
     20 C         143.5969  142.8777  164.3735 C.ar    1  UNL1        0.0000
     21 C         144.3757  143.7839  163.4667 C.ar    1  UNL1        0.0000
     22 C         143.7649  145.0653  162.9822 C.ar    1  UNL1        0.0000
     23 C         142.3753  145.4405  163.4045 C.ar    1  UNL1        0.0000
     24 C         141.5965  144.5343  164.3112 C.ar    1  UNL1        0.0000
     25 C         138.5183  139.5908  162.2650 C.3     1  UNL1        0.1250
     26 C         141.7597  138.7298  160.1432 C.ar    1  UNL1        0.0137
     27 C         141.1823  138.6561  158.7608 C.ar    1  UNL1        0.0011
     28 C         139.7169  138.8939  158.5464 C.ar    1  UNL1       -0.0002
     29 C         138.8289  139.2055  159.7145 C.ar    1  UNL1       -0.0026
     30 C         139.4063  139.2793  161.0970 C.ar    1  UNL1       -0.0020
     31 C         140.8717  139.0414  161.3113 C.ar    1  UNL1       -0.0015
     32 O         144.2319  139.1720  159.4778 O.co2   1  UNL1       -0.5446
     33 C         143.2251  138.4920  160.3576 C.2     1  UNL1        0.0729
     34 O         143.6838  137.5741  161.4517 O.co2   1  UNL1       -0.5446
@<TRIPOS>UNITY_ATOM_ATTR
32 1
charge -1
@<TRIPOS>BOND
     1    32    33   ar
     2    33    34   ar
     3    33    26    1
     4    26    27   ar
     5    27    28   ar
     6    28    29   ar
     7    29    30   ar
     8    30    25    1
     9    25     1    1
    10     1     2   am
    11     2     3    2
    12     2     4    1
    13     4     5    2
    14     5    19    1
    15    19    20   ar
    16    20    21   ar
    17    21    22   ar
    18    22    23   ar
    19    23    24   ar
    20     5    12    1
    21    12    13   ar
    22    13    14   ar
    23    14    15   ar
    24    15    16    1
    25    15    17   ar
    26    17    18   ar
    27     4     6    1
    28     6     7   ar
    29     7     8   ar
    30     8     9   ar
    31     9    10   ar
    32    10    11   ar
    33    30    31   ar
    34    31    26   ar
    35    11     1    1
    36    24    19   ar
    37    18    12   ar
    38    11     6   ar
@<TRIPOS>MOLECULE
*****
 34 38 0 0 0
SMALL
GASTEIGER

@<TRIPOS>ATOM
      1 N         141.8483  139.4217  158.8637 N.am    1  UNL1       -0.2509
      2 C         141.3761  139.1773  160.2663 C.2     1  UNL1        0.2530
      3 O         140.3680  138.1509  160.6911 O.2     1  UNL1       -0.2696
      4 C         142.0889  140.1396  161.1696 C.2     1  UNL1        0.0551
      5 C         141.9189  140.2444  162.6563 C.2     1  UNL1        0.0044
      6 C         143.0017  140.9786  160.3253 C.ar    1  UNL1        0.0181
      7 C         143.9490  142.0893  160.6701 C.ar    1  UNL1        0.0014
      8 C         144.7476  142.7563  159.5897 C.ar    1  UNL1        0.0001
      9 C         144.5989  142.3127  158.1645 C.ar    1  UNL1        0.0013
     10 C         143.6515  141.2020  157.8198 C.ar    1  UNL1        0.0149
     11 C         142.8529  140.5350  158.9002 C.ar    1  UNL1        0.0545
     12 C         142.7038  141.2608  163.4312 C.ar    1  UNL1        0.0002
     13 C         142.0891  142.5876  163.7655 C.ar    1  UNL1        0.0009
     14 C         142.8742  143.6040  164.5404 C.ar    1  UNL1        0.0114
     15 C         144.2740  143.2938  164.9811 C.ar    1  UNL1        0.0577
     16 CL        145.0590  144.3102  165.7560 Cl      1  UNL1       -0.0822
     17 C         144.8888  141.9670  164.6468 C.ar    1  UNL1        0.0114
     18 C         144.1037  140.9505  163.8719 C.ar    1  UNL1        0.0009
     19 C         140.9637  139.3326  163.3681 C.ar    1  UNL1        0.0001
     20 C         141.4386  138.0092  163.8906 C.ar    1  UNL1        0.0000
     21 C         140.4836  137.0974  164.6023 C.ar    1  UNL1        0.0000
     22 C         139.0536  137.5092  164.7916 C.ar    1  UNL1        0.0000
     23 C         138.5788  138.8327  164.2691 C.ar    1  UNL1        0.0000
     24 C         139.5338  139.7444  163.5573 C.ar    1  UNL1        0.0000
     25 C         141.3953  138.6826  157.6396 C.3     1  UNL1        0.1250
     26 C         143.3098  135.3309  156.7173 C.ar    1  UNL1        0.0137
     27 C         144.1805  135.8026  155.5907 C.ar    1  UNL1        0.0011
     28 C         144.1229  137.2343  155.1470 C.ar    1  UNL1       -0.0002
     29 C         143.1945  138.1943  155.8300 C.ar    1  UNL1       -0.0026
     30 C         142.3237  137.7226  156.9567 C.ar    1  UNL1       -0.0020
     31 C         142.3814  136.2909  157.4003 C.ar    1  UNL1       -0.0015
     32 O         142.3279  132.9257  156.6903 O.co2   1  UNL1       -0.5446
     33 C         143.3675  133.8992  157.1609 C.2     1  UNL1        0.0729
     34 O         144.4649  133.4409  158.0752 O.co2   1  UNL1       -0.5446
@<TRIPOS>UNITY_ATOM_ATTR
32 1
charge -1
@<TRIPOS>BOND
     1    32    33   ar
     2    33    34   ar
     3    33    26    1
     4    26    27   ar
     5    27    28   ar
     6    28    29   ar
     7    29    30   ar
     8    30    25    1
     9    25     1    1
    10     1     2   am
    11     2     3    2
    12     2     4    1
    13     4     5    2
    14     5    19    1
    15    19    20   ar
    16    20    21   ar
    17    21    22   ar
    18    22    23   ar
    19    23    24   ar
    20     5    12    1
    21    12    13   ar
    22    13    14   ar
    23    14    15   ar
    24    15    16    1
    25    15    17   ar
    26    17    18   ar
    27     4     6    1
    28     6     7   ar
    29     7     8   ar
    30     8     9   ar
    31     9    10   ar
    32    10    11   ar
    33    30    31   ar
    34    31    26   ar
    35    11     1    1
    36    24    19   ar
    37    18    12   ar
    38    11     6   ar
@<TRIPOS>MOLECULE
*****
 34 38 0 0 0
SMALL
GASTEIGER

@<TRIPOS>ATOM
      1 N         140.0954  141.7334  163.7227 N.am    1  UNL1       -0.2509
      2 C         140.3513  142.2961  162.3560 C.2     1  UNL1        0.2530
      3 O         140.3482  143.7498  161.9862 O.2     1  UNL1       -0.2696
      4 C         140.6110  141.1498  161.4240 C.2     1  UNL1        0.0551
      5 C         140.9131  141.2560  159.9586 C.2     1  UNL1        0.0044
      6 C         140.5155  139.8787  162.2147 C.ar    1  UNL1        0.0181
      7 C         140.6776  138.4395  161.8246 C.ar    1  UNL1        0.0014
      8 C         140.5210  137.3609  162.8551 C.ar    1  UNL1        0.0001
      9 C         140.2023  137.7216  164.2758 C.ar    1  UNL1        0.0013
     10 C         140.0403  139.1609  164.6659 C.ar    1  UNL1        0.0149
     11 C         140.1969  140.2394  163.6354 C.ar    1  UNL1        0.0545
     12 C         141.1520  140.0153  159.1502 C.ar    1  UNL1        0.0002
     13 C         142.5388  139.4579  159.0239 C.ar    1  UNL1        0.0009
     14 C         142.7777  138.2171  158.2155 C.ar    1  UNL1        0.0114
     15 C         141.6298  137.5338  157.5334 C.ar    1  UNL1        0.0577
     16 CL        141.8687  136.2931  156.7250 Cl      1  UNL1       -0.0822
     17 C         140.2429  138.0912  157.6596 C.ar    1  UNL1        0.0114
     18 C         140.0040  139.3319  158.4680 C.ar    1  UNL1        0.0009
     19 C         140.9762  142.6030  159.3014 C.ar    1  UNL1        0.0001
     20 C         139.7321  143.2200  158.7345 C.ar    1  UNL1        0.0000
     21 C         139.7952  144.5669  158.0774 C.ar    1  UNL1        0.0000
     22 C         141.1025  145.2968  157.9872 C.ar    1  UNL1        0.0000
     23 C         142.3466  144.6798  158.5542 C.ar    1  UNL1        0.0000
     24 C         142.2836  143.3329  159.2113 C.ar    1  UNL1        0.0000
     25 C         139.7913  142.5257  164.9596 C.3     1  UNL1        0.1250
     26 C         141.2095  142.8926  168.6479 C.ar    1  UNL1        0.0137
     27 C         142.6148  142.4024  168.4614 C.ar    1  UNL1        0.0011
     28 C         143.0790  141.9533  167.1075 C.ar    1  UNL1       -0.0002
     29 C         142.1378  141.9944  165.9403 C.ar    1  UNL1       -0.0026
     30 C         140.7324  142.4846  166.1268 C.ar    1  UNL1       -0.0020
     31 C         140.2683  142.9337  167.4807 C.ar    1  UNL1       -0.0015
     32 O         140.9461  142.4556  171.1954 O.co2   1  UNL1       -0.5446
     33 C         140.7454  143.3416  170.0018 C.2     1  UNL1        0.0729
     34 O         140.0807  144.6767  170.1620 O.co2   1  UNL1       -0.5446
@<TRIPOS>UNITY_ATOM_ATTR
32 1
charge -1
@<TRIPOS>BOND
     1    32    33   ar
     2    33    34   ar
     3    33    26    1
     4    26    27   ar
     5    27    28   ar
     6    28    29   ar
     7    29    30   ar
     8    30    25    1
     9    25     1    1
    10     1     2   am
    11     2     3    2
    12     2     4    1
    13     4     5    2
    14     5    19    1
    15    19    20   ar
    16    20    21   ar
    17    21    22   ar
    18    22    23   ar
    19    23    24   ar
    20     5    12    1
    21    12    13   ar
    22    13    14   ar
    23    14    15   ar
    24    15    16    1
    25    15    17   ar
    26    17    18   ar
    27     4     6    1
    28     6     7   ar
    29     7     8   ar
    30     8     9   ar
    31     9    10   ar
    32    10    11   ar
    33    30    31   ar
    34    31    26   ar
    35    11     1    1
    36    24    19   ar
    37    18    12   ar
    38    11     6   ar
