@<TRIPOS>MOLECULE
*****
 29 32 0 0 0
SMALL
GASTEIGER

@<TRIPOS>ATOM
      1 C         140.6181  144.0759  163.8897 C.ar    1  UNL1        0.1491
      2 N         140.4707  145.2684  162.9917 N.ar    1  UNL1       -0.1977
      3 C         139.2438  145.4207  162.1425 C.ar    1  UNL1        0.2149
      4 N         139.0965  146.6132  161.2445 N.pl3   1  UNL1       -0.3274
      5 N         138.1641  144.3805  162.1911 N.ar    1  UNL1       -0.2124
      6 C         138.3114  143.1880  163.0891 C.ar    1  UNL1        0.1041
      7 C         137.4203  142.0092  163.3464 C.ar    1  UNL1        0.0394
      8 C         138.0966  141.1284  164.3547 C.ar    1  UNL1        0.0779
      9 N         139.4056  141.7628  164.7206 N.ar    1  UNL1       -0.3169
     10 C         139.5384  143.0358  163.9383 C.ar    1  UNL1        0.1101
     11 H         139.8051  147.2959  161.2125 H       1  UNL1        0.1452
     12 H         138.2911  146.7132  160.6870 H       1  UNL1        0.1452
     13 N         141.8451  143.9237  164.7390 N.pl3   1  UNL1       -0.3119
     14 H         141.7573  143.7458  165.7033 H       1  UNL1        0.1486
     15 C         143.2058  144.0423  164.1190 C.3     1  UNL1        0.1383
     16 C         145.2079  139.1708  164.4938 C.3     1  UNL1        0.0754
     17 C         144.9401  140.5712  164.0276 C.ar    1  UNL1        0.1546
     18 C         143.9604  141.5306  164.6356 C.ar    1  UNL1        0.0553
     19 C         144.0198  142.8103  163.8554 C.ar    1  UNL1        0.1201
     20 N         145.0363  142.6418  162.7652 N.ar    1  UNL1       -0.0800
     21 O         145.6050  141.2579  162.8717 O.2     1  UNL1       -0.3580
     22 C         140.4062  141.2196  165.6972 C.3     1  UNL1        0.1520
     23 C         140.1813  141.3842  167.1711 C.ar    1  UNL1        0.0827
     24 C         140.4904  142.6931  167.8352 C.ar    1  UNL1        0.0281
     25 C         140.2656  142.8578  169.3091 C.ar    1  UNL1        0.0605
     26 CL        140.5746  144.1667  169.9734 Cl      1  UNL1       -0.0822
     27 C         139.7317  141.7134  170.1188 C.ar    1  UNL1        0.0320
     28 C         139.4226  140.4045  169.4545 C.ar    1  UNL1        0.0994
     29 N         139.6475  140.2399  167.9807 N.ar    1  UNL1       -0.2462
@<TRIPOS>BOND
     1    16    17    1
     2    17    18   ar
     3    18    19   ar
     4    19    15    1
     5    15    13    1
     6    13     1    1
     7     1     2   ar
     8     2     3   ar
     9     3     4    1
    10     3     5   ar
    11     5     6   ar
    12     6     7   ar
    13     7     8   ar
    14     8     9   ar
    15     9    22    1
    16    22    23    1
    17    23    24   ar
    18    24    25   ar
    19    25    26    1
    20    25    27   ar
    21    27    28   ar
    22    28    29   ar
    23     9    10   ar
    24    19    20   ar
    25    20    21   ar
    26    21    17   ar
    27    10     1   ar
    28    10     6   ar
    29    29    23   ar
    30    13    14    1
    31     4    11    1
    32     4    12    1
@<TRIPOS>MOLECULE
*****
 29 32 0 0 0
SMALL
GASTEIGER

@<TRIPOS>ATOM
      1 C         142.3217  141.9169  167.8173 C.ar    1  UNL1        0.1491
      2 N         143.1188  142.7684  168.7606 N.ar    1  UNL1       -0.1977
      3 C         142.6681  142.9378  170.1811 C.ar    1  UNL1        0.2149
      4 N         143.4652  143.7893  171.1244 N.pl3   1  UNL1       -0.3274
      5 N         141.4203  142.2557  170.6586 N.ar    1  UNL1       -0.2124
      6 C         140.6233  141.4042  169.7153 C.ar    1  UNL1        0.1041
      7 C         139.3612  140.6146  169.8985 C.ar    1  UNL1        0.0394
      8 C         139.0319  139.9571  168.5911 C.ar    1  UNL1        0.0779
      9 N         140.0905  140.3405  167.5999 N.ar    1  UNL1       -0.3169
     10 C         141.0740  141.2349  168.2947 C.ar    1  UNL1        0.1101
     11 H         144.2841  144.2369  170.8111 H       1  UNL1        0.1452
     12 H         143.1694  143.9005  172.0568 H       1  UNL1        0.1452
     13 N         142.7725  141.7475  166.3967 N.pl3   1  UNL1       -0.3119
     14 H         142.4570  140.9789  165.8685 H       1  UNL1        0.1486
     15 C         143.7038  142.7492  165.7808 C.3     1  UNL1        0.1383
     16 C         140.6835  145.5176  162.4499 C.3     1  UNL1        0.0754
     17 C         141.8666  144.8403  163.0758 C.ar    1  UNL1        0.1546
     18 C         141.8625  144.0697  164.3626 C.ar    1  UNL1        0.0553
     19 C         143.2548  143.5678  164.6068 C.ar    1  UNL1        0.1201
     20 N         144.1194  144.0283  163.4708 N.ar    1  UNL1       -0.0800
     21 O         143.2614  144.8148  162.5246 O.2     1  UNL1       -0.3580
     22 C         140.1543  139.9057  166.1657 C.3     1  UNL1        0.1520
     23 C         139.2693  140.5569  165.1445 C.ar    1  UNL1        0.0827
     24 C         138.9642  142.0223  165.2418 C.ar    1  UNL1        0.0281
     25 C         138.0792  142.6736  164.2207 C.ar    1  UNL1        0.0605
     26 CL        137.7740  144.1389  164.3179 Cl      1  UNL1       -0.0822
     27 C         137.4995  141.8593  163.1022 C.ar    1  UNL1        0.0320
     28 C         137.8047  140.3939  163.0049 C.ar    1  UNL1        0.0994
     29 N         138.6896  139.7427  164.0260 N.ar    1  UNL1       -0.2462
@<TRIPOS>BOND
     1    16    17    1
     2    17    18   ar
     3    18    19   ar
     4    19    15    1
     5    15    13    1
     6    13     1    1
     7     1     2   ar
     8     2     3   ar
     9     3     4    1
    10     3     5   ar
    11     5     6   ar
    12     6     7   ar
    13     7     8   ar
    14     8     9   ar
    15     9    22    1
    16    22    23    1
    17    23    24   ar
    18    24    25   ar
    19    25    26    1
    20    25    27   ar
    21    27    28   ar
    22    28    29   ar
    23     9    10   ar
    24    19    20   ar
    25    20    21   ar
    26    21    17   ar
    27    10     1   ar
    28    10     6   ar
    29    29    23   ar
    30    13    14    1
    31     4    11    1
    32     4    12    1
@<TRIPOS>MOLECULE
*****
 29 32 0 0 0
SMALL
GASTEIGER

@<TRIPOS>ATOM
      1 C         139.7341  140.1895  167.3405 C.ar    1  UNL1        0.1491
      2 N         139.3386  139.7328  168.7134 N.ar    1  UNL1       -0.1977
      3 C         140.1966  140.0772  169.8945 C.ar    1  UNL1        0.2149
      4 N         139.8010  139.6205  171.2676 N.pl3   1  UNL1       -0.3274
      5 N         141.4502  140.8784  169.7028 N.ar    1  UNL1       -0.2124
      6 C         141.8457  141.3351  168.3299 C.ar    1  UNL1        0.1041
      7 C         143.0163  142.1322  167.8357 C.ar    1  UNL1        0.0394
      8 C         142.8818  142.2803  166.3491 C.ar    1  UNL1        0.0779
      9 N         141.6280  141.5748  165.9245 N.ar    1  UNL1       -0.3169
     10 C         140.9876  140.9906  167.1487 C.ar    1  UNL1        0.1101
     11 H         138.9783  139.0947  171.3934 H       1  UNL1        0.1452
     12 H         140.3642  139.8465  172.0428 H       1  UNL1        0.1452
     13 N         138.8760  139.8450  166.1593 N.pl3   1  UNL1       -0.3119
     14 H         138.3352  140.5428  165.7237 H       1  UNL1        0.1486
     15 C         138.8421  138.4375  165.6420 C.3     1  UNL1        0.1383
     16 C         139.3849  138.2727  160.3923 C.3     1  UNL1        0.0754
     17 C         139.6167  138.0537  161.8581 C.ar    1  UNL1        0.1546
     18 C         138.7722  138.5927  162.9744 C.ar    1  UNL1        0.0553
     19 C         139.3672  138.1295  164.2710 C.ar    1  UNL1        0.1201
     20 N         140.5794  137.3042  163.9561 N.ar    1  UNL1       -0.0800
     21 O         140.7336  137.2574  162.4648 O.2     1  UNL1       -0.3580
     22 C         141.1062  141.4717  164.5220 C.3     1  UNL1        0.1520
     23 C         140.0767  142.4460  164.0312 C.ar    1  UNL1        0.0827
     24 C         140.5068  143.7276  163.3814 C.ar    1  UNL1        0.0281
     25 C         139.4773  144.7020  162.8906 C.ar    1  UNL1        0.0605
     26 CL        139.9073  145.9837  162.2407 Cl      1  UNL1       -0.0822
     27 C         138.0178  144.3946  163.0496 C.ar    1  UNL1        0.0320
     28 C         137.5878  143.1128  163.6994 C.ar    1  UNL1        0.0994
     29 N         138.6172  142.1386  164.1902 N.ar    1  UNL1       -0.2462
@<TRIPOS>BOND
     1    16    17    1
     2    17    18   ar
     3    18    19   ar
     4    19    15    1
     5    15    13    1
     6    13     1    1
     7     1     2   ar
     8     2     3   ar
     9     3     4    1
    10     3     5   ar
    11     5     6   ar
    12     6     7   ar
    13     7     8   ar
    14     8     9   ar
    15     9    22    1
    16    22    23    1
    17    23    24   ar
    18    24    25   ar
    19    25    26    1
    20    25    27   ar
    21    27    28   ar
    22    28    29   ar
    23     9    10   ar
    24    19    20   ar
    25    20    21   ar
    26    21    17   ar
    27    10     1   ar
    28    10     6   ar
    29    29    23   ar
    30    13    14    1
    31     4    11    1
    32     4    12    1
@<TRIPOS>MOLECULE
*****
 29 32 0 0 0
SMALL
GASTEIGER

@<TRIPOS>ATOM
      1 C         144.2181  139.4294  162.9072 C.ar    1  UNL1        0.1491
      2 N         144.4141  139.6227  161.4327 N.ar    1  UNL1       -0.1977
      3 C         143.4627  138.9907  160.4605 C.ar    1  UNL1        0.2149
      4 N         143.6587  139.1839  158.9859 N.pl3   1  UNL1       -0.3274
      5 N         142.3152  138.1653  160.9627 N.ar    1  UNL1       -0.2124
      6 C         142.1192  137.9721  162.4372 C.ar    1  UNL1        0.1041
      7 C         141.0875  137.2175  163.2222 C.ar    1  UNL1        0.0394
      8 C         141.4014  137.3832  164.6796 C.ar    1  UNL1        0.0779
      9 N         142.6270  138.2402  164.7954 N.ar    1  UNL1       -0.3169
     10 C         143.0707  138.6042  163.4095 C.ar    1  UNL1        0.1101
     11 H         144.4118  139.7256  158.6562 H       1  UNL1        0.1452
     12 H         143.0343  138.7691  158.3477 H       1  UNL1        0.1452
     13 N         145.1696  140.0615  163.8795 N.pl3   1  UNL1       -0.3119
     14 H         145.4319  139.5784  164.6962 H       1  UNL1        0.1486
     15 C         145.7212  141.4296  163.6074 C.3     1  UNL1        0.1383
     16 C         142.1031  145.2693  163.8232 C.3     1  UNL1        0.0754
     17 C         143.1364  144.3099  163.3114 C.ar    1  UNL1        0.1546
     18 C         143.8619  143.2791  164.1244 C.ar    1  UNL1        0.0553
     19 C         144.7994  142.5450  163.2122 C.ar    1  UNL1        0.1201
     20 N         144.6532  143.1221  161.8354 N.ar    1  UNL1       -0.0800
     21 O         143.6254  144.2128  161.8967 O.2     1  UNL1       -0.3580
     22 C         143.2922  138.6596  166.0727 C.3     1  UNL1        0.1520
     23 C         142.7157  139.7808  166.8855 C.ar    1  UNL1        0.0827
     24 C         141.9175  140.8595  166.2154 C.ar    1  UNL1        0.0281
     25 C         141.3411  141.9808  167.0281 C.ar    1  UNL1        0.0605
     26 CL        140.5428  143.0595  166.3580 Cl      1  UNL1       -0.0822
     27 C         141.5629  142.0232  168.5110 C.ar    1  UNL1        0.0320
     28 C         142.3612  140.9444  169.1811 C.ar    1  UNL1        0.0994
     29 N         142.9376  139.8233  168.3684 N.ar    1  UNL1       -0.2462
@<TRIPOS>BOND
     1    16    17    1
     2    17    18   ar
     3    18    19   ar
     4    19    15    1
     5    15    13    1
     6    13     1    1
     7     1     2   ar
     8     2     3   ar
     9     3     4    1
    10     3     5   ar
    11     5     6   ar
    12     6     7   ar
    13     7     8   ar
    14     8     9   ar
    15     9    22    1
    16    22    23    1
    17    23    24   ar
    18    24    25   ar
    19    25    26    1
    20    25    27   ar
    21    27    28   ar
    22    28    29   ar
    23     9    10   ar
    24    19    20   ar
    25    20    21   ar
    26    21    17   ar
    27    10     1   ar
    28    10     6   ar
    29    29    23   ar
    30    13    14    1
    31     4    11    1
    32     4    12    1
@<TRIPOS>MOLECULE
*****
 29 32 0 0 0
SMALL
GASTEIGER

@<TRIPOS>ATOM
      1 C         141.1154  142.6114  162.3347 C.ar    1  UNL1        0.1491
      2 N         142.4339  143.3187  162.2286 N.ar    1  UNL1       -0.1977
      3 C         142.6247  144.6524  162.8879 C.ar    1  UNL1        0.2149
      4 N         143.9433  145.3598  162.7818 N.pl3   1  UNL1       -0.3274
      5 N         141.4969  145.2790  163.6533 N.ar    1  UNL1       -0.2124
      6 C         140.1784  144.5716  163.7593 C.ar    1  UNL1        0.1041
      7 C         138.8942  144.9394  164.4415 C.ar    1  UNL1        0.0394
      8 C         137.9097  143.8329  164.2039 C.ar    1  UNL1        0.0779
      9 N         138.5855  142.7813  163.3748 N.ar    1  UNL1       -0.3169
     10 C         139.9877  143.2378  163.1000 C.ar    1  UNL1        0.1101
     11 H         144.6834  144.9486  162.2795 H       1  UNL1        0.1452
     12 H         144.0685  146.2352  163.2145 H       1  UNL1        0.1452
     13 N         140.9247  141.2776  161.6754 N.pl3   1  UNL1       -0.3119
     14 H         140.1502  141.1257  161.0869 H       1  UNL1        0.1486
     15 C         141.9139  140.1753  161.9128 C.3     1  UNL1        0.1383
     16 C         141.9718  139.5905  167.1603 C.3     1  UNL1        0.0754
     17 C         142.0788  139.3044  165.6917 C.ar    1  UNL1        0.1546
     18 C         141.8323  140.2835  164.5824 C.ar    1  UNL1        0.0553
     19 C         142.0521  139.5732  163.2798 C.ar    1  UNL1        0.1201
     20 N         142.4345  138.1550  163.5839 N.ar    1  UNL1       -0.0800
     21 O         142.4509  137.9889  165.0746 O.2     1  UNL1       -0.3580
     22 C         137.9676  141.4984  162.9033 C.3     1  UNL1        0.1520
     23 C         138.2293  140.2222  163.6469 C.ar    1  UNL1        0.0827
     24 C         138.1033  140.1854  165.1410 C.ar    1  UNL1        0.0281
     25 C         138.3649  138.9093  165.8847 C.ar    1  UNL1        0.0605
     26 CL        138.2389  138.8725  167.3789 Cl      1  UNL1       -0.0822
     27 C         138.7525  137.6698  165.1339 C.ar    1  UNL1        0.0320
     28 C         138.8784  137.7066  163.6397 C.ar    1  UNL1        0.0994
     29 N         138.6168  138.9827  162.8962 N.ar    1  UNL1       -0.2462
@<TRIPOS>BOND
     1    16    17    1
     2    17    18   ar
     3    18    19   ar
     4    19    15    1
     5    15    13    1
     6    13     1    1
     7     1     2   ar
     8     2     3   ar
     9     3     4    1
    10     3     5   ar
    11     5     6   ar
    12     6     7   ar
    13     7     8   ar
    14     8     9   ar
    15     9    22    1
    16    22    23    1
    17    23    24   ar
    18    24    25   ar
    19    25    26    1
    20    25    27   ar
    21    27    28   ar
    22    28    29   ar
    23     9    10   ar
    24    19    20   ar
    25    20    21   ar
    26    21    17   ar
    27    10     1   ar
    28    10     6   ar
    29    29    23   ar
    30    13    14    1
    31     4    11    1
    32     4    12    1
@<TRIPOS>MOLECULE
*****
 29 32 0 0 0
SMALL
GASTEIGER

@<TRIPOS>ATOM
      1 C         139.6056  143.9704  163.8532 C.ar    1  UNL1        0.1491
      2 N         138.9473  144.9994  162.9827 N.ar    1  UNL1       -0.1977
      3 C         139.7577  145.7574  161.9736 C.ar    1  UNL1        0.2149
      4 N         139.0994  146.7865  161.1030 N.pl3   1  UNL1       -0.3274
      5 N         141.2266  145.4866  161.8349 N.ar    1  UNL1       -0.2124
      6 C         141.8849  144.4576  162.7054 C.ar    1  UNL1        0.1041
      7 C         143.3033  143.9781  162.7953 C.ar    1  UNL1        0.0394
      8 C         143.3695  142.9237  163.8601 C.ar    1  UNL1        0.0779
      9 N         141.9920  142.7514  164.4282 N.ar    1  UNL1       -0.3169
     10 C         141.0744  143.6995  163.7145 C.ar    1  UNL1        0.1101
     11 H         138.1353  146.9643  161.1940 H       1  UNL1        0.1452
     12 H         139.6313  147.2840  160.4407 H       1  UNL1        0.1452
     13 N         138.7951  143.2123  164.8623 N.pl3   1  UNL1       -0.3119
     14 H         138.9782  143.3220  165.8234 H       1  UNL1        0.1486
     15 C         137.7057  142.2871  164.4072 C.3     1  UNL1        0.1383
     16 C         139.0701  137.2533  165.2325 C.3     1  UNL1        0.0754
     17 C         138.6285  138.5201  164.5613 C.ar    1  UNL1        0.1546
     18 C         138.4537  139.8543  165.2241 C.ar    1  UNL1        0.0553
     19 C         138.0014  140.8338  164.1821 C.ar    1  UNL1        0.1201
     20 N         137.8966  140.1049  162.8752 N.ar    1  UNL1       -0.0800
     21 O         138.2842  138.6750  163.1097 O.2     1  UNL1       -0.3580
     22 C         141.6007  141.7985  165.5185 C.3     1  UNL1        0.1520
     23 C         141.6436  142.2399  166.9515 C.ar    1  UNL1        0.0827
     24 C         142.9098  142.0963  167.7428 C.ar    1  UNL1        0.0281
     25 C         142.9528  142.5376  169.1758 C.ar    1  UNL1        0.0605
     26 CL        144.2189  142.3941  169.9671 Cl      1  UNL1       -0.0822
     27 C         141.7295  143.1226  169.8174 C.ar    1  UNL1        0.0320
     28 C         140.4634  143.2661  169.0260 C.ar    1  UNL1        0.0994
     29 N         140.4205  142.8248  167.5931 N.ar    1  UNL1       -0.2462
@<TRIPOS>BOND
     1    16    17    1
     2    17    18   ar
     3    18    19   ar
     4    19    15    1
     5    15    13    1
     6    13     1    1
     7     1     2   ar
     8     2     3   ar
     9     3     4    1
    10     3     5   ar
    11     5     6   ar
    12     6     7   ar
    13     7     8   ar
    14     8     9   ar
    15     9    22    1
    16    22    23    1
    17    23    24   ar
    18    24    25   ar
    19    25    26    1
    20    25    27   ar
    21    27    28   ar
    22    28    29   ar
    23     9    10   ar
    24    19    20   ar
    25    20    21   ar
    26    21    17   ar
    27    10     1   ar
    28    10     6   ar
    29    29    23   ar
    30    13    14    1
    31     4    11    1
    32     4    12    1
@<TRIPOS>MOLECULE
*****
 29 32 0 0 0
SMALL
GASTEIGER

@<TRIPOS>ATOM
      1 C         137.8267  141.2170  163.1774 C.ar    1  UNL1        0.1491
      2 N         137.7523  141.7313  161.7703 N.ar    1  UNL1       -0.1977
      3 C         138.1772  140.8563  160.6285 C.ar    1  UNL1        0.2149
      4 N         138.1028  141.3706  159.2213 N.pl3   1  UNL1       -0.3274
      5 N         138.6766  139.4669  160.8937 N.ar    1  UNL1       -0.2124
      6 C         138.7510  138.9526  162.3009 C.ar    1  UNL1        0.1041
      7 C         139.1973  137.6369  162.8663 C.ar    1  UNL1        0.0394
      8 C         139.0482  137.6988  164.3576 C.ar    1  UNL1        0.0779
      9 N         138.5098  139.0528  164.7138 N.ar    1  UNL1       -0.3169
     10 C         138.3260  139.8277  163.4427 C.ar    1  UNL1        0.1101
     11 H         137.7751  142.2825  159.0472 H       1  UNL1        0.1452
     12 H         138.3817  140.7963  158.4719 H       1  UNL1        0.1452
     13 N         137.4018  142.0921  164.3192 N.pl3   1  UNL1       -0.3119
     14 H         137.0931  141.6868  165.1616 H       1  UNL1        0.1486
     15 C         137.4472  143.5847  164.1775 C.3     1  UNL1        0.1383
     16 C         142.4599  145.2071  163.8272 C.3     1  UNL1        0.0754
     17 C         141.0035  145.0001  163.5333 C.ar    1  UNL1        0.1546
     18 C         140.0455  144.1872  164.3528 C.ar    1  UNL1        0.0553
     19 C         138.6995  144.2543  163.6944 C.ar    1  UNL1        0.1201
     20 N         138.8255  145.1088  162.4680 N.ar    1  UNL1       -0.0800
     21 O         140.2495  145.5697  162.3685 O.2     1  UNL1       -0.3580
     22 C         138.2080  139.5453  166.0981 C.3     1  UNL1        0.1520
     23 C         139.3153  140.0616  166.9685 C.ar    1  UNL1        0.0827
     24 C         140.4067  140.9014  166.3742 C.ar    1  UNL1        0.0281
     25 C         141.5140  141.4178  167.2444 C.ar    1  UNL1        0.0605
     26 CL        142.6056  142.2576  166.6502 Cl      1  UNL1       -0.0822
     27 C         141.5297  141.0942  168.7091 C.ar    1  UNL1        0.0320
     28 C         140.4381  140.2544  169.3034 C.ar    1  UNL1        0.0994
     29 N         139.3309  139.7381  168.4331 N.ar    1  UNL1       -0.2462
@<TRIPOS>BOND
     1    16    17    1
     2    17    18   ar
     3    18    19   ar
     4    19    15    1
     5    15    13    1
     6    13     1    1
     7     1     2   ar
     8     2     3   ar
     9     3     4    1
    10     3     5   ar
    11     5     6   ar
    12     6     7   ar
    13     7     8   ar
    14     8     9   ar
    15     9    22    1
    16    22    23    1
    17    23    24   ar
    18    24    25   ar
    19    25    26    1
    20    25    27   ar
    21    27    28   ar
    22    28    29   ar
    23     9    10   ar
    24    19    20   ar
    25    20    21   ar
    26    21    17   ar
    27    10     1   ar
    28    10     6   ar
    29    29    23   ar
    30    13    14    1
    31     4    11    1
    32     4    12    1
@<TRIPOS>MOLECULE
*****
 29 32 0 0 0
SMALL
GASTEIGER

@<TRIPOS>ATOM
      1 C         142.8723  141.7988  161.4851 C.ar    1  UNL1        0.1491
      2 N         143.0171  143.2907  161.5427 N.ar    1  UNL1       -0.1977
      3 C         143.9119  143.9182  162.5699 C.ar    1  UNL1        0.2149
      4 N         144.0567  145.4102  162.6275 N.pl3   1  UNL1       -0.3274
      5 N         144.6620  143.0540  163.5398 N.ar    1  UNL1       -0.2124
      6 C         144.5172  141.5621  163.4822 C.ar    1  UNL1        0.1041
      7 C         145.1260  140.4623  164.3005 C.ar    1  UNL1        0.0394
      8 C         144.6075  139.1550  163.7789 C.ar    1  UNL1        0.0779
      9 N         143.6782  139.4468  162.6382 N.ar    1  UNL1       -0.3169
     10 C         143.6223  140.9345  162.4548 C.ar    1  UNL1        0.1101
     11 H         143.5644  145.9775  161.9911 H       1  UNL1        0.1452
     12 H         144.6440  145.8221  163.3018 H       1  UNL1        0.1452
     13 N         141.9775  141.1713  160.4577 N.pl3   1  UNL1       -0.3119
     14 H         142.1755  140.2687  160.1179 H       1  UNL1        0.1486
     15 C         140.7811  141.9188  159.9481 C.3     1  UNL1        0.1383
     16 C         137.6061  141.9522  164.1670 C.3     1  UNL1        0.0754
     17 C         138.1758  142.2327  162.8080 C.ar    1  UNL1        0.1546
     18 C         139.4535  141.6743  162.2552 C.ar    1  UNL1        0.0553
     19 C         139.6352  142.2174  160.8689 C.ar    1  UNL1        0.1201
     20 N         138.4698  143.1115  160.5649 N.ar    1  UNL1       -0.0800
     21 O         137.5679  143.1210  161.7634 O.2     1  UNL1       -0.3580
     22 C         142.9352  138.4296  161.8239 C.3     1  UNL1        0.1520
     23 C         141.4578  138.2514  162.0129 C.ar    1  UNL1        0.0827
     24 C         140.9042  137.9787  163.3800 C.ar    1  UNL1        0.0281
     25 C         139.4269  137.8005  163.5692 C.ar    1  UNL1        0.0605
     26 CL        138.8732  137.5278  164.9363 Cl      1  UNL1       -0.0822
     27 C         138.5032  137.8950  162.3910 C.ar    1  UNL1        0.0320
     28 C         139.0569  138.1677  161.0239 C.ar    1  UNL1        0.0994
     29 N         140.5342  138.3459  160.8348 N.ar    1  UNL1       -0.2462
@<TRIPOS>BOND
     1    16    17    1
     2    17    18   ar
     3    18    19   ar
     4    19    15    1
     5    15    13    1
     6    13     1    1
     7     1     2   ar
     8     2     3   ar
     9     3     4    1
    10     3     5   ar
    11     5     6   ar
    12     6     7   ar
    13     7     8   ar
    14     8     9   ar
    15     9    22    1
    16    22    23    1
    17    23    24   ar
    18    24    25   ar
    19    25    26    1
    20    25    27   ar
    21    27    28   ar
    22    28    29   ar
    23     9    10   ar
    24    19    20   ar
    25    20    21   ar
    26    21    17   ar
    27    10     1   ar
    28    10     6   ar
    29    29    23   ar
    30    13    14    1
    31     4    11    1
    32     4    12    1
@<TRIPOS>MOLECULE
*****
 29 32 0 0 0
SMALL
GASTEIGER

@<TRIPOS>ATOM
      1 C         141.6210  144.1858  163.3604 C.ar    1  UNL1        0.1491
      2 N         142.0996  144.6737  162.0251 N.ar    1  UNL1       -0.1977
      3 C         141.1079  145.0468  160.9635 C.ar    1  UNL1        0.2149
      4 N         141.5865  145.5347  159.6281 N.pl3   1  UNL1       -0.3274
      5 N         139.6374  144.9319  161.2370 N.ar    1  UNL1       -0.2124
      6 C         139.1589  144.4440  162.5722 C.ar    1  UNL1        0.1041
      7 C         137.7822  144.2283  163.1275 C.ar    1  UNL1        0.0394
      8 C         137.9233  143.7220  164.5324 C.ar    1  UNL1        0.0779
      9 N         139.3870  143.6247  164.8454 N.ar    1  UNL1       -0.3169
     10 C         140.1507  144.0710  163.6339 C.ar    1  UNL1        0.1101
     11 H         142.5515  145.6101  159.4486 H       1  UNL1        0.1452
     12 H         140.9355  145.7795  158.9313 H       1  UNL1        0.1452
     13 N         142.6128  143.8128  164.4221 N.pl3   1  UNL1       -0.3119
     14 H         142.3937  143.9532  165.3715 H       1  UNL1        0.1486
     15 C         143.9385  143.2259  164.0371 C.3     1  UNL1        0.1383
     16 C         142.8714  138.2330  162.6902 C.3     1  UNL1        0.0754
     17 C         143.5794  139.4524  163.2023 C.ar    1  UNL1        0.1546
     18 C         143.0264  140.8465  163.2300 C.ar    1  UNL1        0.0553
     19 C         144.0698  141.7473  163.8214 C.ar    1  UNL1        0.1201
     20 N         145.2675  140.9099  164.1594 N.ar    1  UNL1       -0.0800
     21 O         144.9644  139.4916  163.7767 O.2     1  UNL1       -0.3580
     22 C         139.9825  143.1624  166.1422 C.3     1  UNL1        0.1520
     23 C         140.6499  141.8216  166.2253 C.ar    1  UNL1        0.0827
     24 C         139.9914  140.6174  165.6202 C.ar    1  UNL1        0.0281
     25 C         140.6587  139.2766  165.7032 C.ar    1  UNL1        0.0605
     26 CL        140.0003  138.0723  165.0982 Cl      1  UNL1       -0.0822
     27 C         141.9846  139.1401  166.3914 C.ar    1  UNL1        0.0320
     28 C         142.6430  140.3444  166.9965 C.ar    1  UNL1        0.0994
     29 N         141.9757  141.6851  166.9134 N.ar    1  UNL1       -0.2462
@<TRIPOS>BOND
     1    16    17    1
     2    17    18   ar
     3    18    19   ar
     4    19    15    1
     5    15    13    1
     6    13     1    1
     7     1     2   ar
     8     2     3   ar
     9     3     4    1
    10     3     5   ar
    11     5     6   ar
    12     6     7   ar
    13     7     8   ar
    14     8     9   ar
    15     9    22    1
    16    22    23    1
    17    23    24   ar
    18    24    25   ar
    19    25    26    1
    20    25    27   ar
    21    27    28   ar
    22    28    29   ar
    23     9    10   ar
    24    19    20   ar
    25    20    21   ar
    26    21    17   ar
    27    10     1   ar
    28    10     6   ar
    29    29    23   ar
    30    13    14    1
    31     4    11    1
    32     4    12    1
