@<TRIPOS>MOLECULE
*****
 24 27 0 0 0
SMALL
GASTEIGER

@<TRIPOS>ATOM
      1 C         139.5353  140.2986  166.5407 C.ar    1  UNL1        0.0267
      2 C         139.1137  139.0501  165.8243 C.ar    1  UNL1        0.1011
      3 N         138.5797  139.1323  164.4250 N.ar    1  UNL1       -0.2251
      4 C         138.4673  140.4632  163.7421 C.ar    1  UNL1        0.1633
      5 C         138.8890  141.7117  164.4585 C.ar    1  UNL1        0.0986
      6 C         139.4230  141.6295  165.8578 C.ar    1  UNL1        0.0224
      7 N         138.6643  142.8734  163.5366 N.ar    1  UNL1       -0.2694
      8 C         138.1038  142.3428  162.2503 C.ar    1  UNL1        0.3331
      9 O         137.7306  143.1587  161.0482 O.2     1  UNL1       -0.2462
     10 N         137.9820  140.8532  162.3773 N.ar    1  UNL1       -0.2630
     11 C         137.4657  139.9178  161.3245 C.3     1  UNL1        0.1366
     12 C         142.8444  139.9468  170.6403 C.3     1  UNL1        0.0382
     13 C         141.5904  140.0547  169.8244 C.ar    1  UNL1        0.0076
     14 C         140.1919  140.1252  170.3623 C.ar    1  UNL1        0.0027
     15 C         139.2519  140.2251  169.1976 C.ar    1  UNL1        0.0067
     16 C         140.0694  140.2164  167.9400 C.ar    1  UNL1        0.0307
     17 S         141.5147  140.1111  168.3274 S.2     1  UNL1       -0.0912
     18 C         138.9501  144.3129  163.8464 C.3     1  UNL1        0.1956
     19 C         140.1279  144.9961  163.2172 C.2     1  UNL1        0.2489
     20 O         139.9130  146.0542  162.1759 O.2     1  UNL1       -0.2728
     21 N         141.5206  144.6213  163.6292 N.am    1  UNL1       -0.2778
     22 C         142.8986  145.0671  163.2385 C.3     1  UNL1        0.0952
     23 C         143.4903  144.0912  164.2119 C.3     1  UNL1        0.0430
     24 C         142.1123  143.6454  164.6025 C.3     1  UNL1        0.0952
@<TRIPOS>BOND
     1    12    13    1
     2    13    14   ar
     3    14    15   ar
     4    15    16   ar
     5    16     1    1
     6     1     2   ar
     7     2     3   ar
     8     3     4   ar
     9     4     5   ar
    10     5     6   ar
    11     5     7   ar
    12     7    18    1
    13    18    19    1
    14    19    20    2
    15    19    21   am
    16    21    22    1
    17    22    23    1
    18    23    24    1
    19     7     8   ar
    20     8     9    2
    21     8    10   ar
    22    10    11    1
    23    16    17   ar
    24    17    13   ar
    25     6     1   ar
    26    24    21    1
    27    10     4   ar
@<TRIPOS>MOLECULE
*****
 24 27 0 0 0
SMALL
GASTEIGER

@<TRIPOS>ATOM
      1 C         143.1151  141.4254  165.3414 C.ar    1  UNL1        0.0267
      2 C         143.8515  140.4348  164.4891 C.ar    1  UNL1        0.1011
      3 N         143.9996  140.6766  163.0162 N.ar    1  UNL1       -0.2251
      4 C         143.4114  141.9090  162.3955 C.ar    1  UNL1        0.1633
      5 C         142.6750  142.8996  163.2478 C.ar    1  UNL1        0.0986
      6 C         142.5269  142.6578  164.7207 C.ar    1  UNL1        0.0224
      7 N         142.2058  144.0151  162.3616 N.ar    1  UNL1       -0.2694
      8 C         142.6522  143.7140  160.9616 C.ar    1  UNL1        0.3331
      9 O         142.3981  144.5652  159.7528 O.2     1  UNL1       -0.2462
     10 N         143.3973  142.4123  160.9825 N.ar    1  UNL1       -0.2630
     11 C         144.0191  141.7332  159.7984 C.3     1  UNL1        0.1366
     12 C         142.3215  139.0379  169.9837 C.3     1  UNL1        0.0382
     13 C         142.6022  140.0862  168.9482 C.ar    1  UNL1        0.0076
     14 C         142.8758  141.5370  169.2139 C.ar    1  UNL1        0.0027
     15 C         143.1013  142.2152  167.8951 C.ar    1  UNL1        0.0067
     16 C         142.9670  141.1836  166.8144 C.ar    1  UNL1        0.0307
     17 S         142.6585  139.8678  167.4653 S.2     1  UNL1       -0.0912
     18 C         141.4270  145.2202  162.7987 C.3     1  UNL1        0.1956
     19 C         139.9527  145.2974  162.5329 C.2     1  UNL1        0.2489
     20 O         139.4263  146.2437  161.4950 O.2     1  UNL1       -0.2728
     21 N         139.0049  144.4282  163.3050 N.am    1  UNL1       -0.2778
     22 C         137.5179  144.2315  163.3187 C.3     1  UNL1        0.0952
     23 C         137.6644  143.1991  164.3969 C.3     1  UNL1        0.0430
     24 C         139.1514  143.3958  164.3832 C.3     1  UNL1        0.0952
@<TRIPOS>BOND
     1    12    13    1
     2    13    14   ar
     3    14    15   ar
     4    15    16   ar
     5    16     1    1
     6     1     2   ar
     7     2     3   ar
     8     3     4   ar
     9     4     5   ar
    10     5     6   ar
    11     5     7   ar
    12     7    18    1
    13    18    19    1
    14    19    20    2
    15    19    21   am
    16    21    22    1
    17    22    23    1
    18    23    24    1
    19     7     8   ar
    20     8     9    2
    21     8    10   ar
    22    10    11    1
    23    16    17   ar
    24    17    13   ar
    25     6     1   ar
    26    24    21    1
    27    10     4   ar
@<TRIPOS>MOLECULE
*****
 24 27 0 0 0
SMALL
GASTEIGER

@<TRIPOS>ATOM
      1 C         142.1778  139.7436  165.8486 C.ar    1  UNL1        0.0267
      2 C         142.4238  138.4098  165.2079 C.ar    1  UNL1        0.1011
      3 N         142.9415  138.3373  163.8020 N.ar    1  UNL1       -0.2251
      4 C         143.2133  139.5985  163.0368 C.ar    1  UNL1        0.1633
      5 C         142.9674  140.9322  163.6775 C.ar    1  UNL1        0.0986
      6 C         142.4496  141.0048  165.0834 C.ar    1  UNL1        0.0224
      7 N         143.3250  141.9970  162.6834 N.ar    1  UNL1       -0.2694
      8 C         143.7919  141.3214  161.4282 C.ar    1  UNL1        0.3331
      9 O         144.2478  142.0077  160.1747 O.2     1  UNL1       -0.2462
     10 N         143.7229  139.8390  161.6466 N.ar    1  UNL1       -0.2630
     11 C         144.0977  138.7825  160.6499 C.3     1  UNL1        0.1366
     12 C         138.9821  140.4429  169.9935 C.3     1  UNL1        0.0382
     13 C         140.1912  140.1376  169.1597 C.ar    1  UNL1        0.0076
     14 C         141.5355  139.7182  169.6765 C.ar    1  UNL1        0.0027
     15 C         142.4433  139.5195  168.4990 C.ar    1  UNL1        0.0067
     16 C         141.6600  139.8162  167.2546 C.ar    1  UNL1        0.0307
     17 S         140.2682  140.1982  167.6630 S.2     1  UNL1       -0.0912
     18 C         143.2319  143.4776  162.9054 C.3     1  UNL1        0.1956
     19 C         142.0710  144.2479  162.3496 C.2     1  UNL1        0.2489
     20 O         142.1291  144.7865  160.9508 O.2     1  UNL1       -0.2728
     21 N         140.8521  144.4795  163.1925 N.am    1  UNL1       -0.2778
     22 C         139.5399  145.1777  162.9905 C.3     1  UNL1        0.0952
     23 C         139.1281  144.8072  164.3844 C.3     1  UNL1        0.0430
     24 C         140.4404  144.1090  164.5864 C.3     1  UNL1        0.0952
@<TRIPOS>BOND
     1    12    13    1
     2    13    14   ar
     3    14    15   ar
     4    15    16   ar
     5    16     1    1
     6     1     2   ar
     7     2     3   ar
     8     3     4   ar
     9     4     5   ar
    10     5     6   ar
    11     5     7   ar
    12     7    18    1
    13    18    19    1
    14    19    20    2
    15    19    21   am
    16    21    22    1
    17    22    23    1
    18    23    24    1
    19     7     8   ar
    20     8     9    2
    21     8    10   ar
    22    10    11    1
    23    16    17   ar
    24    17    13   ar
    25     6     1   ar
    26    24    21    1
    27    10     4   ar
@<TRIPOS>MOLECULE
*****
 24 27 0 0 0
SMALL
GASTEIGER

@<TRIPOS>ATOM
      1 C         140.3469  142.0794  166.4379 C.ar    1  UNL1        0.0267
      2 C         139.4604  140.8725  166.3532 C.ar    1  UNL1        0.1011
      3 N         138.7304  140.5660  165.0792 N.ar    1  UNL1       -0.2251
      4 C         138.8870  141.4664  163.8898 C.ar    1  UNL1        0.1633
      5 C         139.7736  142.6734  163.9745 C.ar    1  UNL1        0.0986
      6 C         140.5035  142.9799  165.2485 C.ar    1  UNL1        0.0224
      7 N         139.7327  143.3725  162.6480 N.ar    1  UNL1       -0.2694
      8 C         138.8209  142.5976  161.7435 C.ar    1  UNL1        0.3331
      9 O         138.4898  142.9405  160.3212 O.2     1  UNL1       -0.2462
     10 N         138.2982  141.4196  162.5110 N.ar    1  UNL1       -0.2630
     11 C         137.3527  140.3776  161.9910 C.3     1  UNL1        0.1366
     12 C         144.1523  142.4584  170.0789 C.3     1  UNL1        0.0382
     13 C         142.8260  142.5602  169.3855 C.ar    1  UNL1        0.0076
     14 C         141.5744  143.1552  169.9595 C.ar    1  UNL1        0.0027
     15 C         140.4934  143.0475  168.9252 C.ar    1  UNL1        0.0067
     16 C         141.0769  142.3860  167.7120 C.ar    1  UNL1        0.0307
     17 S         142.5185  142.0848  167.9965 S.2     1  UNL1       -0.0912
     18 C         140.4736  144.6264  162.2890 C.3     1  UNL1        0.1956
     19 C         141.8907  144.8161  162.7427 C.2     1  UNL1        0.2489
     20 O         142.2112  145.8360  163.7948 O.2     1  UNL1       -0.2728
     21 N         142.9873  143.9859  162.1442 N.am    1  UNL1       -0.2778
     22 C         144.4722  143.8927  162.3357 C.3     1  UNL1        0.0952
     23 C         144.5382  142.8119  161.2978 C.3     1  UNL1        0.0430
     24 C         143.0534  142.9051  161.1062 C.3     1  UNL1        0.0952
@<TRIPOS>BOND
     1    12    13    1
     2    13    14   ar
     3    14    15   ar
     4    15    16   ar
     5    16     1    1
     6     1     2   ar
     7     2     3   ar
     8     3     4   ar
     9     4     5   ar
    10     5     6   ar
    11     5     7   ar
    12     7    18    1
    13    18    19    1
    14    19    20    2
    15    19    21   am
    16    21    22    1
    17    22    23    1
    18    23    24    1
    19     7     8   ar
    20     8     9    2
    21     8    10   ar
    22    10    11    1
    23    16    17   ar
    24    17    13   ar
    25     6     1   ar
    26    24    21    1
    27    10     4   ar
@<TRIPOS>MOLECULE
*****
 24 27 0 0 0
SMALL
GASTEIGER

@<TRIPOS>ATOM
      1 C         138.5578  139.9303  162.0501 C.ar    1  UNL1        0.0267
      2 C         137.8937  139.2642  160.8817 C.ar    1  UNL1        0.1011
      3 N         137.8694  139.9443  159.5450 N.ar    1  UNL1       -0.2251
      4 C         138.5092  141.2905  159.3766 C.ar    1  UNL1        0.1633
      5 C         139.1733  141.9567  160.5450 C.ar    1  UNL1        0.0986
      6 C         139.1975  141.2766  161.8817 C.ar    1  UNL1        0.0224
      7 N         139.7164  143.2751  160.0796 N.ar    1  UNL1       -0.2694
      8 C         139.3880  143.4238  158.6236 C.ar    1  UNL1        0.3331
      9 O         139.7434  144.5938  157.7546 O.2     1  UNL1       -0.2462
     10 N         138.6419  142.1973  158.1891 N.ar    1  UNL1       -0.2630
     11 C         138.1201  141.9252  156.8093 C.3     1  UNL1        0.1366
     12 C         138.1529  139.0382  167.2386 C.3     1  UNL1        0.0382
     13 C         138.3960  138.8402  165.7718 C.ar    1  UNL1        0.0076
     14 C         138.8431  137.5673  165.1161 C.ar    1  UNL1        0.0027
     15 C         138.9581  137.8208  163.6421 C.ar    1  UNL1        0.0067
     16 C         138.5821  139.2503  163.3869 C.ar    1  UNL1        0.0307
     17 S         138.2347  139.8803  164.7031 S.2     1  UNL1       -0.0912
     18 C         140.4578  144.2702  160.9223 C.3     1  UNL1        0.1956
     19 C         141.9539  144.2096  161.0127 C.2     1  UNL1        0.2489
     20 O         142.7630  143.8258  159.8094 O.2     1  UNL1       -0.2728
     21 N         142.6408  144.5327  162.3064 N.am    1  UNL1       -0.2778
     22 C         144.0677  144.5798  162.7668 C.3     1  UNL1        0.0952
     23 C         143.6123  144.9897  164.1360 C.3     1  UNL1        0.0430
     24 C         142.1855  144.9426  163.6756 C.3     1  UNL1        0.0952
@<TRIPOS>BOND
     1    12    13    1
     2    13    14   ar
     3    14    15   ar
     4    15    16   ar
     5    16     1    1
     6     1     2   ar
     7     2     3   ar
     8     3     4   ar
     9     4     5   ar
    10     5     6   ar
    11     5     7   ar
    12     7    18    1
    13    18    19    1
    14    19    20    2
    15    19    21   am
    16    21    22    1
    17    22    23    1
    18    23    24    1
    19     7     8   ar
    20     8     9    2
    21     8    10   ar
    22    10    11    1
    23    16    17   ar
    24    17    13   ar
    25     6     1   ar
    26    24    21    1
    27    10     4   ar
@<TRIPOS>MOLECULE
*****
 24 27 0 0 0
SMALL
GASTEIGER

@<TRIPOS>ATOM
      1 C         141.1461  140.3791  166.6984 C.ar    1  UNL1        0.0267
      2 C         141.4788  139.0657  166.0550 C.ar    1  UNL1        0.1011
      3 N         140.8080  138.6669  164.7740 N.ar    1  UNL1       -0.2251
      4 C         139.8045  139.5815  164.1365 C.ar    1  UNL1        0.1633
      5 C         139.4718  140.8950  164.7800 C.ar    1  UNL1        0.0986
      6 C         140.1426  141.2938  166.0609 C.ar    1  UNL1        0.0224
      7 N         138.4497  141.5841  163.9254 N.ar    1  UNL1       -0.2694
      8 C         138.1506  140.6965  162.7537 C.ar    1  UNL1        0.3331
      9 O         137.1839  140.9943  161.6460 O.2     1  UNL1       -0.2462
     10 N         138.9879  139.4588  162.8842 N.ar    1  UNL1       -0.2630
     11 C         139.0057  138.3016  161.9299 C.3     1  UNL1        0.1366
     12 C         142.9822  143.2706  170.7171 C.3     1  UNL1        0.0382
     13 C         142.6609  142.1070  169.8266 C.ar    1  UNL1        0.0076
     14 C         143.0375  140.6764  170.0749 C.ar    1  UNL1        0.0027
     15 C         142.5159  139.8550  168.9333 C.ar    1  UNL1        0.0067
     16 C         141.8169  140.7780  167.9795 C.ar    1  UNL1        0.0307
     17 S         141.9065  142.1698  168.5316 S.2     1  UNL1       -0.0912
     18 C         137.8345  142.9253  164.1951 C.3     1  UNL1        0.1956
     19 C         138.6826  144.1618  164.1516 C.2     1  UNL1        0.2489
     20 O         138.8421  145.0055  165.3815 O.2     1  UNL1       -0.2728
     21 N         139.3712  144.5545  162.8782 N.am    1  UNL1       -0.2778
     22 C         140.2694  145.6816  162.4621 C.3     1  UNL1        0.0952
     23 C         140.3450  145.1101  161.0773 C.3     1  UNL1        0.0430
     24 C         139.4468  143.9831  161.4934 C.3     1  UNL1        0.0952
@<TRIPOS>BOND
     1    12    13    1
     2    13    14   ar
     3    14    15   ar
     4    15    16   ar
     5    16     1    1
     6     1     2   ar
     7     2     3   ar
     8     3     4   ar
     9     4     5   ar
    10     5     6   ar
    11     5     7   ar
    12     7    18    1
    13    18    19    1
    14    19    20    2
    15    19    21   am
    16    21    22    1
    17    22    23    1
    18    23    24    1
    19     7     8   ar
    20     8     9    2
    21     8    10   ar
    22    10    11    1
    23    16    17   ar
    24    17    13   ar
    25     6     1   ar
    26    24    21    1
    27    10     4   ar
@<TRIPOS>MOLECULE
*****
 24 27 0 0 0
SMALL
GASTEIGER

@<TRIPOS>ATOM
      1 C         139.8417  140.4435  166.4655 C.ar    1  UNL1        0.0267
      2 C         138.7259  139.5957  165.9305 C.ar    1  UNL1        0.1011
      3 N         138.2780  139.7561  164.5080 N.ar    1  UNL1       -0.2251
      4 C         138.9458  140.7642  163.6205 C.ar    1  UNL1        0.1633
      5 C         140.0615  141.6120  164.1555 C.ar    1  UNL1        0.0986
      6 C         140.5095  141.4517  165.5780 C.ar    1  UNL1        0.0224
      7 N         140.5270  142.5155  163.0523 N.ar    1  UNL1       -0.2694
      8 C         139.6989  142.2262  161.8356 C.ar    1  UNL1        0.3331
      9 O         139.8259  142.9008  160.5018 O.2     1  UNL1       -0.2462
     10 N         138.7216  141.1438  162.1867 N.ar    1  UNL1       -0.2630
     11 C         137.6997  140.5459  161.2657 C.3     1  UNL1        0.1366
     12 C         142.8893  139.7836  170.7267 C.3     1  UNL1        0.0382
     13 C         141.6905  139.9799  169.8467 C.ar    1  UNL1        0.0076
     14 C         140.2675  140.0932  170.3076 C.ar    1  UNL1        0.0027
     15 C         139.4018  140.2807  169.0971 C.ar    1  UNL1        0.0067
     16 C         140.2897  140.2832  167.8881 C.ar    1  UNL1        0.0307
     17 S         141.7042  140.0974  168.3514 S.2     1  UNL1       -0.0912
     18 C         141.6274  143.5303  163.1490 C.3     1  UNL1        0.1956
     19 C         142.9303  143.2932  162.4445 C.2     1  UNL1        0.2489
     20 O         143.1964  143.9457  161.1203 O.2     1  UNL1       -0.2728
     21 N         143.9670  142.4037  163.0642 N.am    1  UNL1       -0.2778
     22 C         145.3407  141.9443  162.6741 C.3     1  UNL1        0.0952
     23 C         145.4332  141.1458  163.9404 C.3     1  UNL1        0.0430
     24 C         144.0596  141.6052  164.3305 C.3     1  UNL1        0.0952
@<TRIPOS>BOND
     1    12    13    1
     2    13    14   ar
     3    14    15   ar
     4    15    16   ar
     5    16     1    1
     6     1     2   ar
     7     2     3   ar
     8     3     4   ar
     9     4     5   ar
    10     5     6   ar
    11     5     7   ar
    12     7    18    1
    13    18    19    1
    14    19    20    2
    15    19    21   am
    16    21    22    1
    17    22    23    1
    18    23    24    1
    19     7     8   ar
    20     8     9    2
    21     8    10   ar
    22    10    11    1
    23    16    17   ar
    24    17    13   ar
    25     6     1   ar
    26    24    21    1
    27    10     4   ar
@<TRIPOS>MOLECULE
*****
 24 27 0 0 0
SMALL
GASTEIGER

@<TRIPOS>ATOM
      1 C         139.9034  140.2572  166.0396 C.ar    1  UNL1        0.0267
      2 C         138.5765  140.0308  165.3780 C.ar    1  UNL1        0.1011
      3 N         138.5151  139.4131  164.0125 N.ar    1  UNL1       -0.2251
      4 C         139.7806  139.0218  163.3087 C.ar    1  UNL1        0.1633
      5 C         141.1075  139.2482  163.9703 C.ar    1  UNL1        0.0986
      6 C         141.1690  139.8659  165.3358 C.ar    1  UNL1        0.0224
      7 N         142.1787  138.7641  163.0386 N.ar    1  UNL1       -0.2694
      8 C         141.5138  138.2385  161.8010 C.ar    1  UNL1        0.3331
      9 O         142.2090  137.6559  160.6062 O.2     1  UNL1       -0.2462
     10 N         140.0316  138.3977  161.9679 N.ar    1  UNL1       -0.2630
     11 C         138.9844  138.0024  160.9694 C.3     1  UNL1        0.1366
     12 C         140.7214  143.6928  169.9651 C.3     1  UNL1        0.0382
     13 C         140.3409  142.4541  169.2095 C.ar    1  UNL1        0.0076
     14 C         139.7782  141.1969  169.8036 C.ar    1  UNL1        0.0027
     15 C         139.5459  140.2209  168.6884 C.ar    1  UNL1        0.0067
     16 C         139.9649  140.8750  167.4052 C.ar    1  UNL1        0.0307
     17 S         140.4563  142.2551  167.7273 S.2     1  UNL1       -0.0912
     18 C         143.6555  138.7994  163.2987 C.3     1  UNL1        0.1956
     19 C         144.3657  140.1157  163.4130 C.2     1  UNL1        0.2489
     20 O         145.0291  140.5006  164.7021 O.2     1  UNL1       -0.2728
     21 N         144.4124  141.0472  162.2383 N.am    1  UNL1       -0.2778
     22 C         145.0063  142.4004  161.9805 C.3     1  UNL1        0.0952
     23 C         144.4786  142.3646  160.5769 C.3     1  UNL1        0.0430
     24 C         143.8848  141.0115  160.8346 C.3     1  UNL1        0.0952
@<TRIPOS>BOND
     1    12    13    1
     2    13    14   ar
     3    14    15   ar
     4    15    16   ar
     5    16     1    1
     6     1     2   ar
     7     2     3   ar
     8     3     4   ar
     9     4     5   ar
    10     5     6   ar
    11     5     7   ar
    12     7    18    1
    13    18    19    1
    14    19    20    2
    15    19    21   am
    16    21    22    1
    17    22    23    1
    18    23    24    1
    19     7     8   ar
    20     8     9    2
    21     8    10   ar
    22    10    11    1
    23    16    17   ar
    24    17    13   ar
    25     6     1   ar
    26    24    21    1
    27    10     4   ar
@<TRIPOS>MOLECULE
*****
 24 27 0 0 0
SMALL
GASTEIGER

@<TRIPOS>ATOM
      1 C         141.5473  139.6724  166.5498 C.ar    1  UNL1        0.0267
      2 C         142.8675  139.1045  166.1202 C.ar    1  UNL1        0.1011
      3 N         143.0470  138.6012  164.7186 N.ar    1  UNL1       -0.2251
      4 C         141.9064  138.6658  163.7467 C.ar    1  UNL1        0.1633
      5 C         140.5862  139.2337  164.1762 C.ar    1  UNL1        0.0986
      6 C         140.4067  139.7370  165.5778 C.ar    1  UNL1        0.0224
      7 N         139.6505  139.1683  163.0057 N.ar    1  UNL1       -0.2694
      8 C         140.3924  138.5600  161.8526 C.ar    1  UNL1        0.3331
      9 O         139.8375  138.3067  160.4822 O.2     1  UNL1       -0.2462
     10 N         141.7866  138.2494  162.3105 N.ar    1  UNL1       -0.2630
     11 C         142.8708  137.6310  161.4785 C.3     1  UNL1        0.1366
     12 C         139.9634  142.5381  170.6922 C.3     1  UNL1        0.0382
     13 C         140.6397  141.4929  169.8555 C.ar    1  UNL1        0.0076
     14 C         141.5432  140.4074  170.3610 C.ar    1  UNL1        0.0027
     15 C         141.9931  139.5934  169.1842 C.ar    1  UNL1        0.0067
     16 C         141.3677  140.1757  167.9514 C.ar    1  UNL1        0.0307
     17 S         140.5313  141.3497  168.3663 S.2     1  UNL1       -0.0912
     18 C         138.2235  139.6302  162.9908 C.3     1  UNL1        0.1956
     19 C         137.8723  140.9617  162.3961 C.2     1  UNL1        0.2489
     20 O         137.4837  141.0584  160.9505 O.2     1  UNL1       -0.2728
     21 N         137.9097  142.1965  163.2469 N.am    1  UNL1       -0.2778
     22 C         137.6341  143.6527  163.0155 C.3     1  UNL1        0.0952
     23 C         137.9626  143.9428  164.4500 C.3     1  UNL1        0.0430
     24 C         138.2382  142.4865  164.6814 C.3     1  UNL1        0.0952
@<TRIPOS>BOND
     1    12    13    1
     2    13    14   ar
     3    14    15   ar
     4    15    16   ar
     5    16     1    1
     6     1     2   ar
     7     2     3   ar
     8     3     4   ar
     9     4     5   ar
    10     5     6   ar
    11     5     7   ar
    12     7    18    1
    13    18    19    1
    14    19    20    2
    15    19    21   am
    16    21    22    1
    17    22    23    1
    18    23    24    1
    19     7     8   ar
    20     8     9    2
    21     8    10   ar
    22    10    11    1
    23    16    17   ar
    24    17    13   ar
    25     6     1   ar
    26    24    21    1
    27    10     4   ar
