@<TRIPOS>MOLECULE
*****
 33 35 0 0 0
SMALL
GASTEIGER

@<TRIPOS>ATOM
      1 N         139.0824  140.1275  166.5072 N.3     1  UNL1       -0.2720
      2 C         139.2943  141.1256  165.4076 C.3     1  UNL1        0.0610
      3 C         140.6849  141.5448  165.0330 C.3     1  UNL1        0.0375
      4 C         140.8968  142.5429  163.9335 C.3     1  UNL1        0.0950
      5 N         139.7181  143.1216  163.2085 N.pl3   1  UNL1       -0.2785
      6 C         138.3274  142.7023  163.5830 C.3     1  UNL1        0.0950
      7 C         138.1155  141.7043  164.6826 C.3     1  UNL1        0.0375
      8 C         139.9300  144.1196  162.1089 C.ar    1  UNL1        0.2163
      9 N         141.0864  144.1470  161.1538 N.ar    1  UNL1       -0.1804
     10 C         140.8938  145.3098  160.2260 C.ar    1  UNL1        0.2331
     11 N         141.8148  145.7109  159.1121 N.pl3   1  UNL1       -0.3262
     12 N         139.6185  146.0011  160.6077 N.ar    1  UNL1       -0.1354
     13 N         139.0229  145.2655  161.7714 N.ar    1  UNL1       -0.2450
     14 H         142.6328  145.1911  158.9384 H       1  UNL1        0.1452
     15 H         141.6015  146.4938  158.5547 H       1  UNL1        0.1452
     16 H         138.1838  145.4946  162.2326 H       1  UNL1        0.1919
     17 C         139.8914  140.2167  167.7671 C.3     1  UNL1        0.0994
     18 C         139.2300  140.0181  169.0987 C.3     1  UNL1        0.1860
     19 S         139.9392  140.4245  170.3565 S.O2    1  UNL1        0.0422
     20 O         139.0182  141.6002  170.4960 O.2     1  UNL1       -0.1575
     21 O         140.8601  139.2488  170.2170 O.2     1  UNL1       -0.1575
     22 C         141.8226  141.7617  171.5458 C.3     1  UNL1        0.1098
     23 N         140.6484  140.8308  171.6142 N.3     1  UNL1       -0.1818
     24 H         139.9535  141.2768  172.2131 H       1  UNL1        0.1485
     25 C         138.0614  139.0403  166.3467 C.3     1  UNL1        0.0768
     26 C         138.4382  137.7500  165.6811 C.3     1  UNL1        0.0437
     27 C         139.3757  137.7559  164.5101 C.ar    1  UNL1       -0.0207
     28 C         138.8396  137.9371  163.1210 C.ar    1  UNL1       -0.0034
     29 C         139.7772  137.9430  161.9502 C.ar    1  UNL1        0.0111
     30 C         141.2508  137.7677  162.1685 C.ar    1  UNL1        0.0577
     31 CL        142.1884  137.7736  160.9975 Cl      1  UNL1       -0.0822
     32 C         141.7869  137.5865  163.5576 C.ar    1  UNL1        0.0111
     33 C         140.8494  137.5806  164.7284 C.ar    1  UNL1       -0.0034
@<TRIPOS>BOND
     1    22    23    1
     2    23    19    1
     3    19    20    2
     4    19    21    2
     5    19    18    1
     6    18    17    1
     7    17     1    1
     8     1    25    1
     9    25    26    1
    10    26    27    1
    11    27    28   ar
    12    28    29   ar
    13    29    30   ar
    14    30    31    1
    15    30    32   ar
    16    32    33   ar
    17     1     2    1
    18     2     3    1
    19     3     4    1
    20     4     5    1
    21     5     8    1
    22     8     9   ar
    23     9    10   ar
    24    10    11    1
    25    10    12   ar
    26    12    13   ar
    27     5     6    1
    28     6     7    1
    29    33    27   ar
    30     7     2    1
    31    13     8   ar
    32    23    24    1
    33    11    14    1
    34    11    15    1
    35    13    16    1
@<TRIPOS>MOLECULE
*****
 33 35 0 0 0
SMALL
GASTEIGER

@<TRIPOS>ATOM
      1 N         139.1067  140.0652  166.5143 N.3     1  UNL1       -0.2720
      2 C         139.3128  141.0738  165.4233 C.3     1  UNL1        0.0610
      3 C         138.1291  141.6983  164.7459 C.3     1  UNL1        0.0375
      4 C         138.3352  142.7069  163.6549 C.3     1  UNL1        0.0950
      5 N         139.7249  143.0908  163.2412 N.pl3   1  UNL1       -0.2785
      6 C         140.9087  142.4663  163.9185 C.3     1  UNL1        0.0950
      7 C         140.7026  141.4577  165.0096 C.3     1  UNL1        0.0375
      8 C         139.9310  144.0994  162.1501 C.ar    1  UNL1        0.2163
      9 N         141.0805  144.1339  161.1870 N.ar    1  UNL1       -0.1804
     10 C         140.8837  145.3063  160.2722 C.ar    1  UNL1        0.2331
     11 N         141.7975  145.7166  159.1558 N.pl3   1  UNL1       -0.3262
     12 N         139.6126  145.9964  160.6700 N.ar    1  UNL1       -0.1354
     13 N         139.0239  145.2504  161.8306 N.ar    1  UNL1       -0.2450
     14 H         142.6130  145.1970  158.9710 H       1  UNL1        0.1452
     15 H         141.5818  146.5055  158.6078 H       1  UNL1        0.1452
     16 H         138.1887  145.4766  162.3002 H       1  UNL1        0.1919
     17 C         139.9350  140.1315  167.7631 C.3     1  UNL1        0.0994
     18 C         139.2802  139.9930  169.1055 C.3     1  UNL1        0.1860
     19 S         140.0307  140.3699  170.3485 S.O2    1  UNL1        0.0422
     20 O         139.1582  139.4529  171.1533 O.2     1  UNL1       -0.1575
     21 O         140.9031  141.2870  169.5436 O.2     1  UNL1       -0.1575
     22 C         141.8651  141.7817  171.5281 C.3     1  UNL1        0.1098
     23 N         140.7811  140.7469  171.5913 N.3     1  UNL1       -0.1818
     24 H         140.0902  141.0847  172.2614 H       1  UNL1        0.1485
     25 C         138.0723  138.9904  166.3565 C.3     1  UNL1        0.0768
     26 C         138.4214  137.7104  165.6568 C.3     1  UNL1        0.0437
     27 C         139.3555  137.7278  164.4832 C.ar    1  UNL1       -0.0207
     28 C         140.8266  137.5228  164.6925 C.ar    1  UNL1       -0.0034
     29 C         141.7606  137.5402  163.5189 C.ar    1  UNL1        0.0111
     30 C         141.2235  137.7626  162.1362 C.ar    1  UNL1        0.0577
     31 CL        142.1577  137.7800  160.9626 Cl      1  UNL1       -0.0822
     32 C         139.7525  137.9676  161.9269 C.ar    1  UNL1        0.0111
     33 C         138.8184  137.9502  163.1004 C.ar    1  UNL1       -0.0034
@<TRIPOS>BOND
     1    22    23    1
     2    23    19    1
     3    19    20    2
     4    19    21    2
     5    19    18    1
     6    18    17    1
     7    17     1    1
     8     1    25    1
     9    25    26    1
    10    26    27    1
    11    27    28   ar
    12    28    29   ar
    13    29    30   ar
    14    30    31    1
    15    30    32   ar
    16    32    33   ar
    17     1     2    1
    18     2     3    1
    19     3     4    1
    20     4     5    1
    21     5     8    1
    22     8     9   ar
    23     9    10   ar
    24    10    11    1
    25    10    12   ar
    26    12    13   ar
    27     5     6    1
    28     6     7    1
    29    33    27   ar
    30     7     2    1
    31    13     8   ar
    32    23    24    1
    33    11    14    1
    34    11    15    1
    35    13    16    1
@<TRIPOS>MOLECULE
*****
 33 35 0 0 0
SMALL
GASTEIGER

@<TRIPOS>ATOM
      1 N         138.6292  139.3170  164.2737 N.3     1  UNL1       -0.2720
      2 C         139.2263  139.9175  165.5118 C.3     1  UNL1        0.0610
      3 C         138.8902  139.3487  166.8584 C.3     1  UNL1        0.0375
      4 C         139.4874  139.9492  168.0965 C.3     1  UNL1        0.0950
      5 N         140.4206  141.1185  167.9880 N.pl3   1  UNL1       -0.2785
      6 C         140.7567  141.6874  166.6413 C.3     1  UNL1        0.0950
      7 C         140.1596  141.0869  165.4032 C.3     1  UNL1        0.0375
      8 C         141.0177  141.7190  169.2260 C.ar    1  UNL1        0.2163
      9 N         142.1534  142.6979  169.2717 N.ar    1  UNL1       -0.1804
     10 C         142.4215  143.0299  170.7098 C.ar    1  UNL1        0.2331
     11 N         143.4747  143.9705  171.2159 N.pl3   1  UNL1       -0.3262
     12 N         141.4516  142.2562  171.5528 N.ar    1  UNL1       -0.1354
     13 N         140.5840  141.4461  170.6358 N.ar    1  UNL1       -0.2450
     14 H         144.0668  144.4343  170.5806 H       1  UNL1        0.1452
     15 H         143.5738  144.1240  172.1833 H       1  UNL1        0.1452
     16 H         139.8575  140.8413  170.9109 H       1  UNL1        0.1919
     17 C         137.7560  140.1495  163.3824 C.3     1  UNL1        0.0994
     18 C         138.3581  140.9005  162.2319 C.3     1  UNL1        0.1860
     19 S         138.0959  142.3691  162.0755 S.O2    1  UNL1        0.0422
     20 O         138.7412  142.3402  160.7218 O.2     1  UNL1       -0.1575
     21 O         137.4506  142.3981  163.4293 O.2     1  UNL1       -0.1575
     22 C         138.4968  144.8200  162.8387 C.3     1  UNL1        0.1098
     23 N         137.8338  143.8377  161.9192 N.3     1  UNL1       -0.1818
     24 H         138.1134  144.0874  160.9706 H       1  UNL1        0.1485
     25 C         138.9053  137.8839  163.9269 C.3     1  UNL1        0.0768
     26 C         140.1423  137.5230  163.1592 C.3     1  UNL1        0.0437
     27 C         141.4313  138.2393  163.4339 C.ar    1  UNL1       -0.0207
     28 C         142.1580  138.0067  164.7253 C.ar    1  UNL1       -0.0034
     29 C         143.4470  138.7230  165.0001 C.ar    1  UNL1        0.0111
     30 C         144.0093  139.6718  163.9834 C.ar    1  UNL1        0.0577
     31 CL        145.2983  140.3880  164.2581 Cl      1  UNL1       -0.0822
     32 C         143.2825  139.9043  162.6920 C.ar    1  UNL1        0.0111
     33 C         141.9936  139.1881  162.4173 C.ar    1  UNL1       -0.0034
@<TRIPOS>BOND
     1    22    23    1
     2    23    19    1
     3    19    20    2
     4    19    21    2
     5    19    18    1
     6    18    17    1
     7    17     1    1
     8     1    25    1
     9    25    26    1
    10    26    27    1
    11    27    28   ar
    12    28    29   ar
    13    29    30   ar
    14    30    31    1
    15    30    32   ar
    16    32    33   ar
    17     1     2    1
    18     2     3    1
    19     3     4    1
    20     4     5    1
    21     5     8    1
    22     8     9   ar
    23     9    10   ar
    24    10    11    1
    25    10    12   ar
    26    12    13   ar
    27     5     6    1
    28     6     7    1
    29    33    27   ar
    30     7     2    1
    31    13     8   ar
    32    23    24    1
    33    11    14    1
    34    11    15    1
    35    13    16    1
@<TRIPOS>MOLECULE
*****
 33 35 0 0 0
SMALL
GASTEIGER

@<TRIPOS>ATOM
      1 N         139.9417  139.1681  162.2217 N.3     1  UNL1       -0.2720
      2 C         139.8298  139.4681  163.6871 C.3     1  UNL1        0.0610
      3 C         138.9303  138.6397  164.5558 C.3     1  UNL1        0.0375
      4 C         138.8184  138.9397  166.0212 C.3     1  UNL1        0.0950
      5 N         139.6059  140.0682  166.6180 N.pl3   1  UNL1       -0.2785
      6 C         140.5054  140.8968  165.7494 C.3     1  UNL1        0.0950
      7 C         140.6174  140.5967  164.2839 C.3     1  UNL1        0.0375
      8 C         139.4940  140.3682  168.0834 C.ar    1  UNL1        0.2163
      9 N         140.1849  141.4838  168.8103 N.ar    1  UNL1       -0.1804
     10 C         139.7894  141.4103  170.2554 C.ar    1  UNL1        0.2331
     11 N         140.2486  142.3354  171.3432 N.pl3   1  UNL1       -0.3262
     12 N         138.8541  140.2494  170.4216 N.ar    1  UNL1       -0.1354
     13 N         138.6716  139.6054  169.0793 N.ar    1  UNL1       -0.2450
     14 H         140.8667  143.0726  171.1341 H       1  UNL1        0.1452
     15 H         139.9318  142.2054  172.2662 H       1  UNL1        0.1452
     16 H         138.1105  138.8199  168.8858 H       1  UNL1        0.1919
     17 C         139.3818  140.1285  161.2146 C.3     1  UNL1        0.0994
     18 C         138.0436  140.7645  161.4481 C.3     1  UNL1        0.1860
     19 S         137.9511  142.2343  161.7329 S.O2    1  UNL1        0.0422
     20 O         138.8347  142.5182  160.5545 O.2     1  UNL1       -0.1575
     21 O         137.0676  141.9504  162.9113 O.2     1  UNL1       -0.1575
     22 C         137.8274  144.1929  163.4354 C.3     1  UNL1        0.1098
     23 N         137.8587  143.7041  162.0176 N.3     1  UNL1       -0.1818
     24 H         138.6659  144.1415  161.5732 H       1  UNL1        0.1485
     25 C         140.6136  137.9077  161.7634 C.3     1  UNL1        0.0768
     26 C         142.0326  137.9477  161.2789 C.3     1  UNL1        0.0437
     27 C         143.0183  138.8786  161.9207 C.ar    1  UNL1       -0.0207
     28 C         143.5331  138.5913  163.2999 C.ar    1  UNL1       -0.0034
     29 C         144.5187  139.5222  163.9416 C.ar    1  UNL1        0.0111
     30 C         144.9896  140.7405  163.2040 C.ar    1  UNL1        0.0577
     31 CL        145.9753  141.6715  163.8458 Cl      1  UNL1       -0.0822
     32 C         144.4747  141.0279  161.8248 C.ar    1  UNL1        0.0111
     33 C         143.4891  140.0970  161.1831 C.ar    1  UNL1       -0.0034
@<TRIPOS>BOND
     1    22    23    1
     2    23    19    1
     3    19    20    2
     4    19    21    2
     5    19    18    1
     6    18    17    1
     7    17     1    1
     8     1    25    1
     9    25    26    1
    10    26    27    1
    11    27    28   ar
    12    28    29   ar
    13    29    30   ar
    14    30    31    1
    15    30    32   ar
    16    32    33   ar
    17     1     2    1
    18     2     3    1
    19     3     4    1
    20     4     5    1
    21     5     8    1
    22     8     9   ar
    23     9    10   ar
    24    10    11    1
    25    10    12   ar
    26    12    13   ar
    27     5     6    1
    28     6     7    1
    29    33    27   ar
    30     7     2    1
    31    13     8   ar
    32    23    24    1
    33    11    14    1
    34    11    15    1
    35    13    16    1
@<TRIPOS>MOLECULE
*****
 33 35 0 0 0
SMALL
GASTEIGER

@<TRIPOS>ATOM
      1 N         138.4758  139.2233  163.3655 N.3     1  UNL1       -0.2720
      2 C         138.9159  139.5368  164.7648 C.3     1  UNL1        0.0610
      3 C         140.2326  140.2146  165.0028 C.3     1  UNL1        0.0375
      4 C         140.6727  140.5280  166.4021 C.3     1  UNL1        0.0950
      5 N         139.7961  140.1636  167.5634 N.pl3   1  UNL1       -0.2785
      6 C         138.4793  139.4858  167.3254 C.3     1  UNL1        0.0950
      7 C         138.0392  139.1723  165.9261 C.3     1  UNL1        0.0375
      8 C         140.2362  140.4771  168.9627 C.ar    1  UNL1        0.2163
      9 N         141.2519  141.5080  169.3575 N.ar    1  UNL1       -0.1804
     10 C         141.3813  141.4827  170.8517 C.ar    1  UNL1        0.2331
     11 N         142.2873  142.3514  171.6730 N.pl3   1  UNL1       -0.3262
     12 N         140.4457  140.4361  171.3804 N.ar    1  UNL1       -0.1354
     13 N         139.7381  139.8147  170.2129 N.ar    1  UNL1       -0.2450
     14 H         142.8677  143.0130  171.2319 H       1  UNL1        0.1452
     15 H         142.3014  142.2600  172.6531 H       1  UNL1        0.1452
     16 H         139.0648  139.0978  170.2591 H       1  UNL1        0.1919
     17 C         138.8723  137.9249  162.7276 C.3     1  UNL1        0.0994
     18 C         139.8881  137.9108  161.6241 C.3     1  UNL1        0.1860
     19 S         141.3505  137.8470  161.9516 S.O2    1  UNL1        0.0422
     20 O         141.6430  138.8013  160.8319 O.2     1  UNL1       -0.1575
     21 O         141.0580  136.8927  163.0713 O.2     1  UNL1       -0.1575
     22 C         143.3866  138.6879  163.3290 C.3     1  UNL1        0.1098
     23 N         142.8129  137.7831  162.2791 N.3     1  UNL1       -0.1818
     24 H         143.0065  136.8269  162.5767 H       1  UNL1        0.1485
     25 C         137.6391  140.2084  162.6040 C.3     1  UNL1        0.0768
     26 C         137.3484  141.5576  163.1914 C.3     1  UNL1        0.0437
     27 C         138.4465  142.5710  163.3226 C.ar    1  UNL1       -0.0207
     28 C         139.5132  142.6613  162.2720 C.ar    1  UNL1       -0.0034
     29 C         140.6113  143.6746  162.4032 C.ar    1  UNL1        0.0111
     30 C         140.6427  144.5977  163.5852 C.ar    1  UNL1        0.0577
     31 CL        141.7409  145.6110  163.7164 Cl      1  UNL1       -0.0822
     32 C         139.5760  144.5074  164.6358 C.ar    1  UNL1        0.0111
     33 C         138.4779  143.4940  164.5046 C.ar    1  UNL1       -0.0034
@<TRIPOS>BOND
     1    22    23    1
     2    23    19    1
     3    19    20    2
     4    19    21    2
     5    19    18    1
     6    18    17    1
     7    17     1    1
     8     1    25    1
     9    25    26    1
    10    26    27    1
    11    27    28   ar
    12    28    29   ar
    13    29    30   ar
    14    30    31    1
    15    30    32   ar
    16    32    33   ar
    17     1     2    1
    18     2     3    1
    19     3     4    1
    20     4     5    1
    21     5     8    1
    22     8     9   ar
    23     9    10   ar
    24    10    11    1
    25    10    12   ar
    26    12    13   ar
    27     5     6    1
    28     6     7    1
    29    33    27   ar
    30     7     2    1
    31    13     8   ar
    32    23    24    1
    33    11    14    1
    34    11    15    1
    35    13    16    1
@<TRIPOS>MOLECULE
*****
 33 35 0 0 0
SMALL
GASTEIGER

@<TRIPOS>ATOM
      1 N         139.2534  142.9904  163.0607 N.3     1  UNL1       -0.2720
      2 C         140.0386  142.7039  164.3063 C.3     1  UNL1        0.0610
      3 C         141.2931  141.8853  164.2304 C.3     1  UNL1        0.0375
      4 C         142.0783  141.5988  165.4760 C.3     1  UNL1        0.0950
      5 N         141.6088  142.1310  166.7975 N.pl3   1  UNL1       -0.2785
      6 C         140.3542  142.9497  166.8734 C.3     1  UNL1        0.0950
      7 C         139.5690  143.2362  165.6278 C.3     1  UNL1        0.0375
      8 C         142.3939  141.8445  168.0431 C.ar    1  UNL1        0.2163
      9 N         142.2537  140.6314  168.9142 N.ar    1  UNL1       -0.1804
     10 C         143.2303  140.7580  170.0457 C.ar    1  UNL1        0.2331
     11 N         143.4283  139.7672  171.1544 N.pl3   1  UNL1       -0.3262
     12 N         143.9739  142.0493  169.8740 N.ar    1  UNL1       -0.1354
     13 N         143.4570  142.7208  168.6363 N.ar    1  UNL1       -0.2450
     14 H         142.8891  138.9440  171.1810 H       1  UNL1        0.1452
     15 H         144.0976  139.9402  171.8554 H       1  UNL1        0.1452
     16 H         143.7620  143.5850  168.2765 H       1  UNL1        0.1919
     17 C         139.9135  143.6700  161.8977 C.3     1  UNL1        0.0994
     18 C         140.6171  144.9799  162.0953 C.3     1  UNL1        0.1860
     19 S         142.0943  145.0062  162.3544 S.O2    1  UNL1        0.0422
     20 O         141.8433  145.5460  163.7312 O.2     1  UNL1       -0.1575
     21 O         142.3454  144.4665  160.9776 O.2     1  UNL1       -0.1575
     22 C         144.3972  143.8035  162.3730 C.3     1  UNL1        0.1098
     23 N         143.5715  145.0325  162.6135 N.3     1  UNL1       -0.1818
     24 H         143.9607  145.7687  162.0244 H       1  UNL1        0.1485
     25 C         137.8082  142.5973  162.9780 C.3     1  UNL1        0.0768
     26 C         137.4334  141.1704  162.7067 C.3     1  UNL1        0.0437
     27 C         138.3262  140.0588  163.1729 C.ar    1  UNL1       -0.0207
     28 C         138.2897  139.6185  164.6063 C.ar    1  UNL1       -0.0034
     29 C         139.1825  138.5069  165.0723 C.ar    1  UNL1        0.0111
     30 C         140.1119  137.8357  164.1050 C.ar    1  UNL1        0.0577
     31 CL        141.0047  136.7240  164.5711 Cl      1  UNL1       -0.0822
     32 C         140.1484  138.2760  162.6716 C.ar    1  UNL1        0.0111
     33 C         139.2556  139.3876  162.2055 C.ar    1  UNL1       -0.0034
@<TRIPOS>BOND
     1    22    23    1
     2    23    19    1
     3    19    20    2
     4    19    21    2
     5    19    18    1
     6    18    17    1
     7    17     1    1
     8     1    25    1
     9    25    26    1
    10    26    27    1
    11    27    28   ar
    12    28    29   ar
    13    29    30   ar
    14    30    31    1
    15    30    32   ar
    16    32    33   ar
    17     1     2    1
    18     2     3    1
    19     3     4    1
    20     4     5    1
    21     5     8    1
    22     8     9   ar
    23     9    10   ar
    24    10    11    1
    25    10    12   ar
    26    12    13   ar
    27     5     6    1
    28     6     7    1
    29    33    27   ar
    30     7     2    1
    31    13     8   ar
    32    23    24    1
    33    11    14    1
    34    11    15    1
    35    13    16    1
@<TRIPOS>MOLECULE
*****
 33 35 0 0 0
SMALL
GASTEIGER

@<TRIPOS>ATOM
      1 N         143.0318  139.3639  162.5601 N.3     1  UNL1       -0.2720
      2 C         142.9598  139.6411  164.0325 C.3     1  UNL1        0.0610
      3 C         142.8214  141.0514  164.5243 C.3     1  UNL1        0.0375
      4 C         142.7494  141.3286  165.9967 C.3     1  UNL1        0.0950
      5 N         142.8158  140.1956  166.9773 N.pl3   1  UNL1       -0.2785
      6 C         142.9542  138.7852  166.4855 C.3     1  UNL1        0.0950
      7 C         143.0262  138.5080  165.0131 C.3     1  UNL1        0.0375
      8 C         142.7438  140.4728  168.4497 C.ar    1  UNL1        0.2163
      9 N         142.5578  141.8187  169.0854 N.ar    1  UNL1       -0.1804
     10 C         142.5442  141.6304  170.5735 C.ar    1  UNL1        0.2331
     11 N         142.3816  142.7141  171.5978 N.pl3   1  UNL1       -0.3262
     12 N         142.7217  140.1683  170.8575 N.ar    1  UNL1       -0.1354
     13 N         142.8451  139.4529  169.5449 N.ar    1  UNL1       -0.2450
     14 H         142.2706  143.6495  171.3114 H       1  UNL1        0.1452
     15 H         142.3858  142.4901  172.5565 H       1  UNL1        0.1452
     16 H         142.9705  138.4839  169.4235 H       1  UNL1        0.1919
     17 C         144.1490  139.9406  161.7421 C.3     1  UNL1        0.0994
     18 C         143.9257  141.1900  160.9427 C.3     1  UNL1        0.1860
     19 S         144.3925  142.5133  161.4731 S.O2    1  UNL1        0.0422
     20 O         143.2882  143.2019  160.7273 O.2     1  UNL1       -0.1575
     21 O         145.4968  141.8246  162.2190 O.2     1  UNL1       -0.1575
     22 C         143.9530  144.6588  162.8708 C.3     1  UNL1        0.1098
     23 N         144.8594  143.8364  162.0035 N.3     1  UNL1       -0.1818
     24 H         145.7026  143.6544  162.5479 H       1  UNL1        0.1485
     25 C         141.9865  138.5099  161.9057 C.3     1  UNL1        0.0768
     26 C         140.5441  138.9184  161.9575 C.3     1  UNL1        0.0437
     27 C         139.7871  138.8355  163.2498 C.ar    1  UNL1       -0.0207
     28 C         139.5505  137.5028  163.8963 C.ar    1  UNL1       -0.0034
     29 C         138.7935  137.4199  165.1886 C.ar    1  UNL1        0.0111
     30 C         138.2730  138.6697  165.8344 C.ar    1  UNL1        0.0577
     31 CL        137.5160  138.5868  167.1267 Cl      1  UNL1       -0.0822
     32 C         138.5096  140.0024  165.1880 C.ar    1  UNL1        0.0111
     33 C         139.2667  140.0853  163.8957 C.ar    1  UNL1       -0.0034
@<TRIPOS>BOND
     1    22    23    1
     2    23    19    1
     3    19    20    2
     4    19    21    2
     5    19    18    1
     6    18    17    1
     7    17     1    1
     8     1    25    1
     9    25    26    1
    10    26    27    1
    11    27    28   ar
    12    28    29   ar
    13    29    30   ar
    14    30    31    1
    15    30    32   ar
    16    32    33   ar
    17     1     2    1
    18     2     3    1
    19     3     4    1
    20     4     5    1
    21     5     8    1
    22     8     9   ar
    23     9    10   ar
    24    10    11    1
    25    10    12   ar
    26    12    13   ar
    27     5     6    1
    28     6     7    1
    29    33    27   ar
    30     7     2    1
    31    13     8   ar
    32    23    24    1
    33    11    14    1
    34    11    15    1
    35    13    16    1
@<TRIPOS>MOLECULE
*****
 33 35 0 0 0
SMALL
GASTEIGER

@<TRIPOS>ATOM
      1 N         138.1667  140.1414  163.5370 N.3     1  UNL1       -0.2720
      2 C         138.8825  140.1812  164.8546 C.3     1  UNL1        0.0610
      3 C         138.2591  139.5539  166.0661 C.3     1  UNL1        0.0375
      4 C         138.9749  139.5937  167.3837 C.3     1  UNL1        0.0950
      5 N         140.3142  140.2607  167.4898 N.pl3   1  UNL1       -0.2785
      6 C         140.9377  140.8880  166.2783 C.3     1  UNL1        0.0950
      7 C         140.2219  140.8483  164.9607 C.3     1  UNL1        0.0375
      8 C         141.0300  140.3005  168.8074 C.ar    1  UNL1        0.2163
      9 N         142.3414  139.6421  169.1186 N.ar    1  UNL1       -0.1804
     10 C         142.6820  139.9404  170.5487 C.ar    1  UNL1        0.2331
     11 N         143.9081  139.4772  171.2780 N.pl3   1  UNL1       -0.3262
     12 N         141.5811  140.7831  171.1213 N.ar    1  UNL1       -0.1354
     13 N         140.5602  141.0057  170.0451 N.ar    1  UNL1       -0.2450
     14 H         144.5776  138.9244  170.8138 H       1  UNL1        0.1452
     15 H         144.0435  139.7260  172.2209 H       1  UNL1        0.1452
     16 H         139.7278  141.5237  170.1353 H       1  UNL1        0.1919
     17 C         138.4035  139.0034  162.5889 C.3     1  UNL1        0.0994
     18 C         139.2758  137.8543  162.9995 C.3     1  UNL1        0.1860
     19 S         140.6109  137.6550  162.3452 S.O2    1  UNL1        0.0422
     20 O         140.1915  138.5498  161.2168 O.2     1  UNL1       -0.1575
     21 O         141.0302  136.7601  163.4736 O.2     1  UNL1       -0.1575
     22 C         143.1695  138.0996  162.2722 C.3     1  UNL1        0.1098
     23 N         141.9458  137.4556  161.6910 N.3     1  UNL1       -0.1818
     24 H         142.1201  136.4507  161.6777 H       1  UNL1        0.1485
     25 C         137.2141  141.2396  163.1676 C.3     1  UNL1        0.0768
     26 C         137.5907  142.6715  163.4080 C.3     1  UNL1        0.0437
     27 C         138.4722  143.3896  162.4295 C.ar    1  UNL1       -0.0207
     28 C         138.8307  142.7400  161.1259 C.ar    1  UNL1       -0.0034
     29 C         139.7122  143.4582  160.1476 C.ar    1  UNL1        0.0111
     30 C         140.2352  144.8259  160.4728 C.ar    1  UNL1        0.0577
     31 CL        141.1167  145.5441  159.4944 Cl      1  UNL1       -0.0822
     32 C         139.8767  145.4755  161.7764 C.ar    1  UNL1        0.0111
     33 C         138.9952  144.7574  162.7548 C.ar    1  UNL1       -0.0034
@<TRIPOS>BOND
     1    22    23    1
     2    23    19    1
     3    19    20    2
     4    19    21    2
     5    19    18    1
     6    18    17    1
     7    17     1    1
     8     1    25    1
     9    25    26    1
    10    26    27    1
    11    27    28   ar
    12    28    29   ar
    13    29    30   ar
    14    30    31    1
    15    30    32   ar
    16    32    33   ar
    17     1     2    1
    18     2     3    1
    19     3     4    1
    20     4     5    1
    21     5     8    1
    22     8     9   ar
    23     9    10   ar
    24    10    11    1
    25    10    12   ar
    26    12    13   ar
    27     5     6    1
    28     6     7    1
    29    33    27   ar
    30     7     2    1
    31    13     8   ar
    32    23    24    1
    33    11    14    1
    34    11    15    1
    35    13    16    1
@<TRIPOS>MOLECULE
*****
 33 35 0 0 0
SMALL
GASTEIGER

@<TRIPOS>ATOM
      1 N         142.0166  138.8464  163.6441 N.3     1  UNL1       -0.2720
      2 C         142.1035  139.5588  164.9612 C.3     1  UNL1        0.0610
      3 C         141.8113  141.0280  165.0400 C.3     1  UNL1        0.0375
      4 C         141.8982  141.7404  166.3571 C.3     1  UNL1        0.0950
      5 N         142.2774  140.9837  167.5955 N.pl3   1  UNL1       -0.2785
      6 C         142.5696  139.5145  167.5168 C.3     1  UNL1        0.0950
      7 C         142.4827  138.8021  166.1997 C.3     1  UNL1        0.0375
      8 C         142.3643  141.6962  168.9127 C.ar    1  UNL1        0.2163
      9 N         143.3398  142.7795  169.2664 N.ar    1  UNL1       -0.1804
     10 C         143.0693  143.2032  170.6797 C.ar    1  UNL1        0.2331
     11 N         143.8112  144.2624  171.4398 N.pl3   1  UNL1       -0.3262
     12 N         141.9268  142.3819  171.1994 N.ar    1  UNL1       -0.1354
     13 N         141.4911  141.4505  170.1073 N.ar    1  UNL1       -0.2450
     14 H         144.5510  144.7496  171.0102 H       1  UNL1        0.1452
     15 H         143.5584  144.4703  172.3683 H       1  UNL1        0.1452
     16 H         140.7603  140.7933  170.1645 H       1  UNL1        0.1919
     17 C         142.8797  139.2821  162.4973 C.3     1  UNL1        0.0994
     18 C         144.3283  139.5969  162.7263 C.3     1  UNL1        0.1860
     19 S         144.8184  141.0088  162.5980 S.O2    1  UNL1        0.0422
     20 O         145.5984  140.8537  163.8698 O.2     1  UNL1       -0.1575
     21 O         144.0384  141.1639  161.3262 O.2     1  UNL1       -0.1575
     22 C         144.3486  143.5188  162.1192 C.3     1  UNL1        0.1098
     23 N         145.3084  142.4206  162.4696 N.3     1  UNL1       -0.1818
     24 H         145.7264  142.6699  163.3661 H       1  UNL1        0.1485
     25 C         141.0664  137.6982  163.4738 C.3     1  UNL1        0.0768
     26 C         139.5987  137.9578  163.3056 C.3     1  UNL1        0.0437
     27 C         139.0895  139.3671  163.2357 C.ar    1  UNL1       -0.0207
     28 C         138.4180  139.9819  164.4277 C.ar    1  UNL1       -0.0034
     29 C         137.9088  141.3910  164.3578 C.ar    1  UNL1        0.0111
     30 C         138.0712  142.1854  163.0958 C.ar    1  UNL1        0.0577
     31 CL        137.5620  143.5947  163.0259 Cl      1  UNL1       -0.0822
     32 C         138.7428  141.5706  161.9038 C.ar    1  UNL1        0.0111
     33 C         139.2519  140.1615  161.9737 C.ar    1  UNL1       -0.0034
@<TRIPOS>BOND
     1    22    23    1
     2    23    19    1
     3    19    20    2
     4    19    21    2
     5    19    18    1
     6    18    17    1
     7    17     1    1
     8     1    25    1
     9    25    26    1
    10    26    27    1
    11    27    28   ar
    12    28    29   ar
    13    29    30   ar
    14    30    31    1
    15    30    32   ar
    16    32    33   ar
    17     1     2    1
    18     2     3    1
    19     3     4    1
    20     4     5    1
    21     5     8    1
    22     8     9   ar
    23     9    10   ar
    24    10    11    1
    25    10    12   ar
    26    12    13   ar
    27     5     6    1
    28     6     7    1
    29    33    27   ar
    30     7     2    1
    31    13     8   ar
    32    23    24    1
    33    11    14    1
    34    11    15    1
    35    13    16    1
