@<TRIPOS>MOLECULE
*****
 28 31 0 0 0
SMALL
GASTEIGER

@<TRIPOS>ATOM
      1 C         140.9420  138.5364  162.2629 C.ar    1  UNL1        0.1917
      2 N         139.7828  137.6118  162.0362 N.ar    1  UNL1       -0.1268
      3 N         138.9771  137.5601  163.3003 N.ar    1  UNL1       -0.1316
      4 C         139.6383  138.4527  164.3084 C.ar    1  UNL1        0.1615
      5 N         140.8527  139.0561  163.6672 N.ar    1  UNL1       -0.2940
      6 C         141.7203  140.0008  164.4449 C.3     1  UNL1        0.1302
      7 C         141.3734  140.3421  165.8638 C.3     1  UNL1        0.1186
      8 N         140.1590  139.7387  166.5050 N.am    1  UNL1       -0.2688
      9 C         139.8122  140.0800  167.9238 C.2     1  UNL1        0.2517
     10 O         138.5978  139.4766  168.5650 O.2     1  UNL1       -0.2698
     11 C         139.2914  138.7940  165.7272 C.3     1  UNL1        0.1343
     12 C         138.0770  138.1906  166.3684 C.3     1  UNL1        0.0298
     13 C         140.6798  141.0247  168.7015 C.ar    1  UNL1        0.0856
     14 C         140.2156  142.4270  168.9625 C.ar    1  UNL1        0.0389
     15 C         141.0833  143.3717  169.7402 C.ar    1  UNL1        0.1699
     16 F         140.6191  144.7740  170.0011 F       1  UNL1       -0.2017
     17 C         142.4150  142.9140  170.2569 C.ar    1  UNL1        0.1968
     18 F         143.2826  143.8587  171.0347 F       1  UNL1       -0.1993
     19 C         142.8791  141.5117  169.9960 C.ar    1  UNL1        0.1970
     20 F         144.2109  141.0541  170.5128 F       1  UNL1       -0.1993
     21 C         142.0115  140.5670  169.2183 C.ar    1  UNL1        0.1741
     22 F         142.4757  139.1647  168.9574 F       1  UNL1       -0.2016
     23 C         143.5793  140.9210  158.3592 C.3     1  UNL1        0.0744
     24 C         143.2163  139.9769  159.4669 C.ar    1  UNL1        0.1481
     25 N         144.0606  138.8450  159.9728 N.ar    1  UNL1       -0.1929
     26 S         143.3114  138.1676  161.0818 S.2     1  UNL1        0.0369
     27 C         142.0041  138.8809  161.2613 C.ar    1  UNL1        0.1652
     28 N         141.9453  139.9991  160.2632 N.ar    1  UNL1       -0.2190
@<TRIPOS>BOND
     1    23    24    1
     2    24    25   ar
     3    25    26   ar
     4    26    27   ar
     5    27     1    1
     6     1     2   ar
     7     2     3   ar
     8     3     4   ar
     9     4     5   ar
    10     5     6    1
    11     6     7    1
    12     7     8    1
    13     8     9   am
    14     9    10    2
    15     9    13    1
    16    13    14   ar
    17    14    15   ar
    18    15    16    1
    19    15    17   ar
    20    17    18    1
    21    17    19   ar
    22    19    20    1
    23    19    21   ar
    24    21    22    1
    25     8    11    1
    26    11    12    1
    27    27    28   ar
    28    28    24   ar
    29     5     1   ar
    30    21    13   ar
    31    11     4    1
@<TRIPOS>MOLECULE
*****
 28 31 0 0 0
SMALL
GASTEIGER

@<TRIPOS>ATOM
      1 C         143.3014  141.2788  161.8792 C.ar    1  UNL1        0.1917
      2 N         144.1990  140.1318  161.5207 N.ar    1  UNL1       -0.1268
      3 N         144.4031  139.3004  162.7524 N.ar    1  UNL1       -0.1316
      4 C         143.6316  139.9336  163.8722 C.ar    1  UNL1        0.1615
      5 N         142.9507  141.1563  163.3325 N.ar    1  UNL1       -0.2940
      6 C         142.0993  142.0002  164.2341 C.3     1  UNL1        0.1302
      7 C         141.9288  141.6213  165.6755 C.3     1  UNL1        0.1186
      8 N         142.6097  140.3986  166.2151 N.am    1  UNL1       -0.2688
      9 C         142.4392  140.0197  167.6564 C.2     1  UNL1        0.2517
     10 O         143.1201  138.7969  168.1961 O.2     1  UNL1       -0.2698
     11 C         143.4611  139.5547  165.3134 C.3     1  UNL1        0.1343
     12 C         144.1420  138.3319  165.8531 C.3     1  UNL1        0.0298
     13 C         141.5878  140.8636  168.5580 C.ar    1  UNL1        0.0856
     14 C         140.2388  140.3719  168.9921 C.ar    1  UNL1        0.0389
     15 C         139.3874  141.2158  169.8938 C.ar    1  UNL1        0.1699
     16 F         138.0384  140.7242  170.3279 F       1  UNL1       -0.2017
     17 C         139.8850  142.5514  170.3613 C.ar    1  UNL1        0.1968
     18 F         139.0336  143.3953  171.2630 F       1  UNL1       -0.1993
     19 C         141.2340  143.0431  169.9272 C.ar    1  UNL1        0.1970
     20 F         141.7316  144.3787  170.3948 F       1  UNL1       -0.1993
     21 C         142.0854  142.1992  169.0256 C.ar    1  UNL1        0.1741
     22 F         143.4344  142.6909  168.5915 F       1  UNL1       -0.2016
     23 C         140.3874  145.0763  159.6503 C.3     1  UNL1        0.0744
     24 C         141.4967  144.1043  159.9235 C.ar    1  UNL1        0.1481
     25 N         142.7435  143.9371  159.1065 N.ar    1  UNL1       -0.1929
     26 S         143.5714  142.8583  159.7397 S.2     1  UNL1        0.0369
     27 C         142.8361  142.3588  160.9480 C.ar    1  UNL1        0.1652
     28 N         141.5539  143.1289  161.0616 N.ar    1  UNL1       -0.2190
@<TRIPOS>BOND
     1    23    24    1
     2    24    25   ar
     3    25    26   ar
     4    26    27   ar
     5    27     1    1
     6     1     2   ar
     7     2     3   ar
     8     3     4   ar
     9     4     5   ar
    10     5     6    1
    11     6     7    1
    12     7     8    1
    13     8     9   am
    14     9    10    2
    15     9    13    1
    16    13    14   ar
    17    14    15   ar
    18    15    16    1
    19    15    17   ar
    20    17    18    1
    21    17    19   ar
    22    19    20    1
    23    19    21   ar
    24    21    22    1
    25     8    11    1
    26    11    12    1
    27    27    28   ar
    28    28    24   ar
    29     5     1   ar
    30    21    13   ar
    31    11     4    1
@<TRIPOS>MOLECULE
*****
 28 31 0 0 0
SMALL
GASTEIGER

@<TRIPOS>ATOM
      1 C         139.5182  141.0478  161.7327 C.ar    1  UNL1        0.1917
      2 N         138.5194  139.9650  161.4500 N.ar    1  UNL1       -0.1268
      3 N         138.1262  139.3442  162.7576 N.ar    1  UNL1       -0.1316
      4 C         138.8819  140.0433  163.8485 C.ar    1  UNL1        0.1615
      5 N         139.7422  141.0962  163.2151 N.ar    1  UNL1       -0.2940
      6 C         140.6185  141.9630  164.0699 C.3     1  UNL1        0.1302
      7 C         140.6345  141.7769  165.5583 C.3     1  UNL1        0.1186
      8 N         139.7741  140.7240  166.1918 N.am    1  UNL1       -0.2688
      9 C         139.7901  140.5379  167.6801 C.2     1  UNL1        0.2517
     10 O         138.9298  139.4850  168.3135 O.2     1  UNL1       -0.2698
     11 C         138.8979  139.8572  165.3368 C.3     1  UNL1        0.1343
     12 C         138.0375  138.8043  165.9703 C.3     1  UNL1        0.0298
     13 C         140.6663  141.4047  168.5349 C.ar    1  UNL1        0.0856
     14 C         140.1899  142.7606  168.9644 C.ar    1  UNL1        0.0389
     15 C         141.0662  143.6274  169.8193 C.ar    1  UNL1        0.1699
     16 F         140.5898  144.9833  170.2489 F       1  UNL1       -0.2017
     17 C         142.4189  143.1383  170.2446 C.ar    1  UNL1        0.1968
     18 F         143.2953  144.0051  171.0995 F       1  UNL1       -0.1993
     19 C         142.8954  141.7824  169.8151 C.ar    1  UNL1        0.1970
     20 F         144.2482  141.2932  170.2404 F       1  UNL1       -0.1993
     21 C         142.0191  140.9156  168.9603 C.ar    1  UNL1        0.1741
     22 F         142.4956  139.5597  168.5307 F       1  UNL1       -0.2016
     23 C         141.0242  145.3029  158.9930 C.3     1  UNL1        0.0744
     24 C         140.8695  143.8836  159.4530 C.ar    1  UNL1        0.1481
     25 N         141.5133  142.6801  158.8308 N.ar    1  UNL1       -0.1929
     26 S         141.0854  141.4712  159.6092 S.2     1  UNL1        0.0369
     27 C         140.1772  141.9277  160.7122 C.ar    1  UNL1        0.1652
     28 N         140.0437  143.4186  160.6157 N.ar    1  UNL1       -0.2190
@<TRIPOS>BOND
     1    23    24    1
     2    24    25   ar
     3    25    26   ar
     4    26    27   ar
     5    27     1    1
     6     1     2   ar
     7     2     3   ar
     8     3     4   ar
     9     4     5   ar
    10     5     6    1
    11     6     7    1
    12     7     8    1
    13     8     9   am
    14     9    10    2
    15     9    13    1
    16    13    14   ar
    17    14    15   ar
    18    15    16    1
    19    15    17   ar
    20    17    18    1
    21    17    19   ar
    22    19    20    1
    23    19    21   ar
    24    21    22    1
    25     8    11    1
    26    11    12    1
    27    27    28   ar
    28    28    24   ar
    29     5     1   ar
    30    21    13   ar
    31    11     4    1
@<TRIPOS>MOLECULE
*****
 28 31 0 0 0
SMALL
GASTEIGER

@<TRIPOS>ATOM
      1 C         142.8437  143.3972  158.7642 C.ar    1  UNL1        0.1917
      2 N         142.5339  144.7482  158.1909 N.ar    1  UNL1       -0.1268
      3 N         141.6756  145.4842  159.1766 N.ar    1  UNL1       -0.1316
      4 C         141.4550  144.5881  160.3591 C.ar    1  UNL1        0.1615
      5 N         142.1769  143.2982  160.1042 N.ar    1  UNL1       -0.2940
      6 C         142.1339  142.2002  161.1252 C.3     1  UNL1        0.1302
      7 C         141.3688  142.3920  162.4011 C.3     1  UNL1        0.1186
      8 N         140.6468  143.6819  162.6560 N.am    1  UNL1       -0.2688
      9 C         139.8818  143.8738  163.9319 C.2     1  UNL1        0.2517
     10 O         139.1599  145.1636  164.1868 O.2     1  UNL1       -0.2698
     11 C         140.6899  144.7799  161.6349 C.3     1  UNL1        0.1343
     12 C         139.9680  146.0698  161.8898 C.3     1  UNL1        0.0298
     13 C         139.8388  142.7757  164.9529 C.ar    1  UNL1        0.0856
     14 C         140.8338  142.7557  166.0751 C.ar    1  UNL1        0.0389
     15 C         140.7907  141.6576  167.0962 C.ar    1  UNL1        0.1699
     16 F         141.7857  141.6375  168.2184 F       1  UNL1       -0.2017
     17 C         139.7526  140.5796  166.9948 C.ar    1  UNL1        0.1968
     18 F         139.7095  139.4815  168.0159 F       1  UNL1       -0.1993
     19 C         138.7576  140.5997  165.8726 C.ar    1  UNL1        0.1970
     20 F         137.7194  139.5216  165.7713 F       1  UNL1       -0.1993
     21 C         138.8006  141.6977  164.8516 C.ar    1  UNL1        0.1741
     22 F         137.8056  141.7177  163.7293 F       1  UNL1       -0.2016
     23 C         146.2430  140.9408  155.5561 C.3     1  UNL1        0.0744
     24 C         145.2370  141.2031  156.6374 C.ar    1  UNL1        0.1481
     25 N         144.6690  140.1831  157.5793 N.ar    1  UNL1       -0.1929
     26 S         143.7033  140.8810  158.4907 S.2     1  UNL1        0.0369
     27 C         143.6745  142.3321  158.1120 C.ar    1  UNL1        0.1652
     28 N         144.6224  142.5312  156.9666 N.ar    1  UNL1       -0.2190
@<TRIPOS>BOND
     1    23    24    1
     2    24    25   ar
     3    25    26   ar
     4    26    27   ar
     5    27     1    1
     6     1     2   ar
     7     2     3   ar
     8     3     4   ar
     9     4     5   ar
    10     5     6    1
    11     6     7    1
    12     7     8    1
    13     8     9   am
    14     9    10    2
    15     9    13    1
    16    13    14   ar
    17    14    15   ar
    18    15    16    1
    19    15    17   ar
    20    17    18    1
    21    17    19   ar
    22    19    20    1
    23    19    21   ar
    24    21    22    1
    25     8    11    1
    26    11    12    1
    27    27    28   ar
    28    28    24   ar
    29     5     1   ar
    30    21    13   ar
    31    11     4    1
@<TRIPOS>MOLECULE
*****
 28 31 0 0 0
SMALL
GASTEIGER

@<TRIPOS>ATOM
      1 C         143.0287  141.1334  161.8659 C.ar    1  UNL1        0.1917
      2 N         143.9345  139.9886  161.5209 N.ar    1  UNL1       -0.1268
      3 N         144.2059  139.2172  162.7784 N.ar    1  UNL1       -0.1316
      4 C         143.4679  139.8852  163.9005 C.ar    1  UNL1        0.1615
      5 N         142.7403  141.0695  163.3365 N.ar    1  UNL1       -0.2940
      6 C         141.9093  141.9367  164.2349 C.3     1  UNL1        0.1302
      7 C         141.8057  141.6196  165.6974 C.3     1  UNL1        0.1186
      8 N         142.5333  140.4353  166.2614 N.am    1  UNL1       -0.2688
      9 C         142.4298  140.1182  167.7238 C.2     1  UNL1        0.2517
     10 O         143.1573  138.9339  168.2878 O.2     1  UNL1       -0.2698
     11 C         143.3644  139.5681  165.3629 C.3     1  UNL1        0.1343
     12 C         144.0920  138.3838  165.9269 C.3     1  UNL1        0.0298
     13 C         141.5987  140.9854  168.6223 C.ar    1  UNL1        0.0856
     14 C         142.1514  142.2828  169.1335 C.ar    1  UNL1        0.0389
     15 C         141.3203  143.1500  170.0320 C.ar    1  UNL1        0.1699
     16 F         141.8730  144.4474  170.5432 F       1  UNL1       -0.2017
     17 C         139.9365  142.7198  170.4192 C.ar    1  UNL1        0.1968
     18 F         139.1053  143.5871  171.3176 F       1  UNL1       -0.1993
     19 C         139.3837  141.4225  169.9079 C.ar    1  UNL1        0.1970
     20 F         137.9998  140.9924  170.2952 F       1  UNL1       -0.1993
     21 C         140.2148  140.5553  169.0095 C.ar    1  UNL1        0.1741
     22 F         139.6621  139.2579  168.4983 F       1  UNL1       -0.2016
     23 C         140.3568  143.4342  157.9355 C.3     1  UNL1        0.0744
     24 C         141.2753  143.2191  159.1017 C.ar    1  UNL1        0.1481
     25 N         142.1151  144.2685  159.7678 N.ar    1  UNL1       -0.1929
     26 S         142.8741  143.6149  160.8844 S.2     1  UNL1        0.0369
     27 C         142.5035  142.1616  160.9083 C.ar    1  UNL1        0.1652
     28 N         141.5154  141.9170  159.8066 N.ar    1  UNL1       -0.2190
@<TRIPOS>BOND
     1    23    24    1
     2    24    25   ar
     3    25    26   ar
     4    26    27   ar
     5    27     1    1
     6     1     2   ar
     7     2     3   ar
     8     3     4   ar
     9     4     5   ar
    10     5     6    1
    11     6     7    1
    12     7     8    1
    13     8     9   am
    14     9    10    2
    15     9    13    1
    16    13    14   ar
    17    14    15   ar
    18    15    16    1
    19    15    17   ar
    20    17    18    1
    21    17    19   ar
    22    19    20    1
    23    19    21   ar
    24    21    22    1
    25     8    11    1
    26    11    12    1
    27    27    28   ar
    28    28    24   ar
    29     5     1   ar
    30    21    13   ar
    31    11     4    1
@<TRIPOS>MOLECULE
*****
 28 31 0 0 0
SMALL
GASTEIGER

@<TRIPOS>ATOM
      1 C         141.8147  141.3351  161.1280 C.ar    1  UNL1        0.1917
      2 N         142.8358  142.2776  160.5630 N.ar    1  UNL1       -0.1268
      3 N         143.5741  142.9025  161.7094 N.ar    1  UNL1       -0.1316
      4 C         143.0094  142.3463  162.9829 C.ar    1  UNL1        0.1615
      5 N         141.9220  141.3776  162.6235 N.ar    1  UNL1       -0.2940
      6 C         141.1700  140.6594  163.7046 C.3     1  UNL1        0.1302
      7 C         141.5054  140.9099  165.1450 C.3     1  UNL1        0.1186
      8 N         142.5928  141.8786  165.5044 N.am    1  UNL1       -0.2688
      9 C         142.9282  142.1291  166.9447 C.2     1  UNL1        0.2517
     10 O         144.0157  143.0978  167.3041 O.2     1  UNL1       -0.2698
     11 C         143.3448  142.5968  164.4233 C.3     1  UNL1        0.1343
     12 C         144.4322  143.5655  164.7826 C.3     1  UNL1        0.0298
     13 C         142.1763  141.4108  168.0257 C.ar    1  UNL1        0.0856
     14 C         142.6918  140.1069  168.5587 C.ar    1  UNL1        0.0389
     15 C         141.9397  139.3887  169.6398 C.ar    1  UNL1        0.1699
     16 F         142.4552  138.0848  170.1727 F       1  UNL1       -0.2017
     17 C         140.6722  139.9744  170.1878 C.ar    1  UNL1        0.1968
     18 F         139.9202  139.2561  171.2689 F       1  UNL1       -0.1993
     19 C         140.1567  141.2783  169.6549 C.ar    1  UNL1        0.1970
     20 F         138.8892  141.8640  170.2030 F       1  UNL1       -0.1993
     21 C         140.9087  141.9965  168.5738 C.ar    1  UNL1        0.1741
     22 F         140.3932  143.3004  168.0409 F       1  UNL1       -0.2016
     23 C         139.8487  137.8879  157.6449 C.3     1  UNL1        0.0744
     24 C         139.9512  138.9127  158.7354 C.ar    1  UNL1        0.1481
     25 N         138.8043  139.5031  159.5010 N.ar    1  UNL1       -0.1929
     26 S         139.3628  140.4824  160.4906 S.2     1  UNL1        0.0369
     27 C         140.8548  140.4973  160.3364 C.ar    1  UNL1        0.1652
     28 N         141.2184  139.5272  159.2516 N.ar    1  UNL1       -0.2190
@<TRIPOS>BOND
     1    23    24    1
     2    24    25   ar
     3    25    26   ar
     4    26    27   ar
     5    27     1    1
     6     1     2   ar
     7     2     3   ar
     8     3     4   ar
     9     4     5   ar
    10     5     6    1
    11     6     7    1
    12     7     8    1
    13     8     9   am
    14     9    10    2
    15     9    13    1
    16    13    14   ar
    17    14    15   ar
    18    15    16    1
    19    15    17   ar
    20    17    18    1
    21    17    19   ar
    22    19    20    1
    23    19    21   ar
    24    21    22    1
    25     8    11    1
    26    11    12    1
    27    27    28   ar
    28    28    24   ar
    29     5     1   ar
    30    21    13   ar
    31    11     4    1
@<TRIPOS>MOLECULE
*****
 28 31 0 0 0
SMALL
GASTEIGER

@<TRIPOS>ATOM
      1 C         140.1835  145.3904  159.6713 C.ar    1  UNL1        0.1917
      2 N         139.6911  146.6831  160.2514 N.ar    1  UNL1       -0.1268
      3 N         139.3546  146.4455  161.6937 N.ar    1  UNL1       -0.1316
      4 C         139.6392  145.0060  162.0050 C.ar    1  UNL1        0.1615
      5 N         140.1515  144.3539  160.7551 N.ar    1  UNL1       -0.2940
      6 C         140.5225  142.9006  160.7653 C.3     1  UNL1        0.1302
      7 C         140.3813  142.0993  162.0255 C.3     1  UNL1        0.1186
      8 N         139.8690  142.7513  163.2754 N.am    1  UNL1       -0.2688
      9 C         139.7278  141.9501  164.5356 C.2     1  UNL1        0.2517
     10 O         139.2155  142.6022  165.7855 O.2     1  UNL1       -0.2698
     11 C         139.4979  144.2047  163.2652 C.3     1  UNL1        0.1343
     12 C         138.9856  144.8568  164.5151 C.3     1  UNL1        0.0298
     13 C         140.0989  140.4968  164.5458 C.ar    1  UNL1        0.0856
     14 C         141.4187  140.0636  165.1120 C.ar    1  UNL1        0.0389
     15 C         141.7897  138.6102  165.1222 C.ar    1  UNL1        0.1699
     16 F         143.1095  138.1771  165.6884 F       1  UNL1       -0.2017
     17 C         140.8410  137.5901  164.5661 C.ar    1  UNL1        0.1968
     18 F         141.2121  136.1367  164.5763 F       1  UNL1       -0.1993
     19 C         139.5213  138.0232  163.9999 C.ar    1  UNL1        0.1970
     20 F         138.5726  137.0030  163.4438 F       1  UNL1       -0.1993
     21 C         139.1502  139.4765  163.9897 C.ar    1  UNL1        0.1741
     22 F         137.8304  139.9097  163.4235 F       1  UNL1       -0.2016
     23 C         140.3270  143.7928  154.6406 C.3     1  UNL1        0.0744
     24 C         140.6956  144.4381  155.9435 C.ar    1  UNL1        0.1481
     25 N         141.9371  145.2361  156.2120 N.ar    1  UNL1       -0.1929
     26 S         141.8964  145.6900  157.6411 S.2     1  UNL1        0.0369
     27 C         140.6298  145.1725  158.2559 C.ar    1  UNL1        0.1652
     28 N         139.8877  144.3988  157.2067 N.ar    1  UNL1       -0.2190
@<TRIPOS>BOND
     1    23    24    1
     2    24    25   ar
     3    25    26   ar
     4    26    27   ar
     5    27     1    1
     6     1     2   ar
     7     2     3   ar
     8     3     4   ar
     9     4     5   ar
    10     5     6    1
    11     6     7    1
    12     7     8    1
    13     8     9   am
    14     9    10    2
    15     9    13    1
    16    13    14   ar
    17    14    15   ar
    18    15    16    1
    19    15    17   ar
    20    17    18    1
    21    17    19   ar
    22    19    20    1
    23    19    21   ar
    24    21    22    1
    25     8    11    1
    26    11    12    1
    27    27    28   ar
    28    28    24   ar
    29     5     1   ar
    30    21    13   ar
    31    11     4    1
@<TRIPOS>MOLECULE
*****
 28 31 0 0 0
SMALL
GASTEIGER

@<TRIPOS>ATOM
      1 C         143.2469  143.2353  160.7354 C.ar    1  UNL1        0.1917
      2 N         144.7352  143.0986  160.6085 N.ar    1  UNL1       -0.1268
      3 N         145.2003  142.1168  161.6428 N.ar    1  UNL1       -0.1316
      4 C         143.9994  141.6467  162.4089 C.ar    1  UNL1        0.1615
      5 N         142.7921  142.3380  161.8481 N.ar    1  UNL1       -0.2940
      6 C         141.4347  142.0611  162.4230 C.3     1  UNL1        0.1302
      7 C         141.2845  141.0928  163.5589 C.3     1  UNL1        0.1186
      8 N         142.4918  140.4016  164.1197 N.am    1  UNL1       -0.2688
      9 C         142.3417  139.4334  165.2555 C.2     1  UNL1        0.2517
     10 O         143.5490  138.7421  165.8163 O.2     1  UNL1       -0.2698
     11 C         143.8493  140.6786  163.5447 C.3     1  UNL1        0.1343
     12 C         145.0566  139.9873  164.1055 C.3     1  UNL1        0.0298
     13 C         140.9842  139.1565  165.8304 C.ar    1  UNL1        0.0856
     14 C         140.5228  139.8934  167.0527 C.ar    1  UNL1        0.0389
     15 C         139.1653  139.6165  167.6276 C.ar    1  UNL1        0.1699
     16 F         138.7039  140.3534  168.8499 F       1  UNL1       -0.2017
     17 C         138.2692  138.6026  166.9803 C.ar    1  UNL1        0.1968
     18 F         136.9117  138.3256  167.5552 F       1  UNL1       -0.1993
     19 C         138.7306  137.8656  165.7580 C.ar    1  UNL1        0.1970
     20 F         137.8345  136.8517  165.1106 F       1  UNL1       -0.1993
     21 C         140.0881  138.1426  165.1831 C.ar    1  UNL1        0.1741
     22 F         140.5495  137.4056  163.9608 F       1  UNL1       -0.2016
     23 C         141.2963  145.9568  156.6526 C.3     1  UNL1        0.0744
     24 C         141.4711  145.3658  158.0201 C.ar    1  UNL1        0.1481
     25 N         140.5580  145.5710  159.1925 N.ar    1  UNL1       -0.1929
     26 S         141.1122  144.7978  160.3524 S.2     1  UNL1        0.0369
     27 C         142.3676  144.1149  159.8968 C.ar    1  UNL1        0.1652
     28 N         142.5894  144.4659  158.4554 N.ar    1  UNL1       -0.2190
@<TRIPOS>BOND
     1    23    24    1
     2    24    25   ar
     3    25    26   ar
     4    26    27   ar
     5    27     1    1
     6     1     2   ar
     7     2     3   ar
     8     3     4   ar
     9     4     5   ar
    10     5     6    1
    11     6     7    1
    12     7     8    1
    13     8     9   am
    14     9    10    2
    15     9    13    1
    16    13    14   ar
    17    14    15   ar
    18    15    16    1
    19    15    17   ar
    20    17    18    1
    21    17    19   ar
    22    19    20    1
    23    19    21   ar
    24    21    22    1
    25     8    11    1
    26    11    12    1
    27    27    28   ar
    28    28    24   ar
    29     5     1   ar
    30    21    13   ar
    31    11     4    1
@<TRIPOS>MOLECULE
*****
 28 31 0 0 0
SMALL
GASTEIGER

@<TRIPOS>ATOM
      1 C         140.6685  141.0091  168.9435 C.ar    1  UNL1        0.1917
      2 N         139.4667  140.4536  169.6487 N.ar    1  UNL1       -0.1268
      3 N         138.7341  139.5660  168.6867 N.ar    1  UNL1       -0.1316
      4 C         139.4830  139.5730  167.3870 C.ar    1  UNL1        0.1615
      5 N         140.6785  140.4649  167.5458 N.ar    1  UNL1       -0.2940
      6 C         141.6218  140.6663  166.3970 C.3     1  UNL1        0.1302
      7 C         141.3696  139.9758  165.0895 C.3     1  UNL1        0.1186
      8 N         140.1741  139.0838  164.9307 N.am    1  UNL1       -0.2688
      9 C         139.9219  138.3933  163.6233 C.2     1  UNL1        0.2517
     10 O         138.7264  137.5014  163.4645 O.2     1  UNL1       -0.2698
     11 C         139.2308  138.8825  166.0795 C.3     1  UNL1        0.1343
     12 C         138.0353  137.9906  165.9208 C.3     1  UNL1        0.0298
     13 C         140.8652  138.5947  162.4746 C.ar    1  UNL1        0.0856
     14 C         142.1509  137.8244  162.4160 C.ar    1  UNL1        0.0389
     15 C         143.0943  138.0258  161.2672 C.ar    1  UNL1        0.1699
     16 F         144.3800  137.2555  161.2086 F       1  UNL1       -0.2017
     17 C         142.7518  138.9975  160.1771 C.ar    1  UNL1        0.1968
     18 F         143.6951  139.1989  159.0283 F       1  UNL1       -0.1993
     19 C         141.4661  139.7678  160.2357 C.ar    1  UNL1        0.1970
     20 F         141.1236  140.7396  159.1454 F       1  UNL1       -0.1993
     21 C         140.5228  139.5665  161.3844 C.ar    1  UNL1        0.1741
     22 F         139.2370  140.3368  161.4429 F       1  UNL1       -0.2016
     23 C         145.2641  143.1760  170.3807 C.3     1  UNL1        0.0744
     24 C         143.7946  142.9406  170.1933 C.ar    1  UNL1        0.1481
     25 N         142.6898  143.8280  170.6854 N.ar    1  UNL1       -0.1929
     26 S         141.3842  143.2124  170.2771 S.2     1  UNL1        0.0369
     27 C         141.6822  141.9447  169.5327 C.ar    1  UNL1        0.1652
     28 N         143.1719  141.7767  169.4809 N.ar    1  UNL1       -0.2190
@<TRIPOS>BOND
     1    23    24    1
     2    24    25   ar
     3    25    26   ar
     4    26    27   ar
     5    27     1    1
     6     1     2   ar
     7     2     3   ar
     8     3     4   ar
     9     4     5   ar
    10     5     6    1
    11     6     7    1
    12     7     8    1
    13     8     9   am
    14     9    10    2
    15     9    13    1
    16    13    14   ar
    17    14    15   ar
    18    15    16    1
    19    15    17   ar
    20    17    18    1
    21    17    19   ar
    22    19    20    1
    23    19    21   ar
    24    21    22    1
    25     8    11    1
    26    11    12    1
    27    27    28   ar
    28    28    24   ar
    29     5     1   ar
    30    21    13   ar
    31    11     4    1
