@<TRIPOS>MOLECULE
*****
 40 44 0 0 0
SMALL
GASTEIGER

@<TRIPOS>ATOM
      1 N         142.6300  141.2802  158.3453 N.3     1  UNL1       -0.2711
      2 C         142.3038  142.7017  157.9947 C.3     1  UNL1        0.0933
      3 C         142.1812  143.0331  159.4525 C.3     1  UNL1        0.1035
      4 C         142.5073  141.6116  159.8031 C.3     1  UNL1        0.0933
      5 C         143.5821  137.5616  155.9967 C.3     1  UNL1        0.1085
      6 O         144.4621  137.1081  154.8698 O.3     1  UNL1       -0.3826
      7 C         142.5653  137.5131  157.0985 C.3     1  UNL1        0.0326
      8 C         142.2479  138.7526  157.8813 C.3     1  UNL1        0.0187
      9 C         142.9473  140.0406  157.5624 C.3     1  UNL1        0.0578
     10 C         143.9641  140.0892  156.4607 C.3     1  UNL1        0.0187
     11 C         144.2815  138.8497  155.6778 C.3     1  UNL1        0.0326
     12 H         144.3133  136.1642  154.7032 H       1  UNL1        0.2107
     13 C         142.4005  133.2249  155.7792 C.ar    1  UNL1        0.2250
     14 C         142.3742  134.0725  154.5418 C.ar    1  UNL1        0.0575
     15 C         142.7680  135.5180  154.6144 C.ar    1  UNL1        0.0043
     16 C         143.1882  136.1161  155.9242 C.ar    1  UNL1        0.0211
     17 C         143.2145  135.2686  157.1616 C.ar    1  UNL1        0.1000
     18 N         142.8206  133.8230  157.0891 N.ar    1  UNL1       -0.2104
     19 C         142.8115  130.7451  156.4363 C.3     1  UNL1        0.2542
     20 O         142.0066  131.7794  155.7067 O.3     1  UNL1       -0.4561
     21 N         141.8638  144.2726  160.2354 N.am    1  UNL1       -0.2999
     22 C         140.4382  144.6154  160.5516 C.2     1  UNL1        0.2701
     23 O         139.3299  143.7187  160.0849 O.2     1  UNL1       -0.2706
     24 H         142.5912  144.8611  160.5417 H       1  UNL1        0.1496
     25 C         140.1208  145.8549  161.3344 C.3     1  UNL1        0.2850
     26 N         140.7414  146.0696  162.6831 N.pl3   1  UNL1       -0.2091
     27 H         141.2831  146.8739  162.8533 H       1  UNL1        0.2928
     28 C         140.5367  145.0589  163.7724 C.2     1  UNL1        0.3493
     29 N         139.3195  144.9318  164.6398 N.2     1  UNL1        0.0798
     30 N         139.5438  143.7922  165.5890 N.2     1  UNL1       -0.0381
     31 C         140.8996  143.2150  165.3083 C.2     1  UNL1        0.1169
     32 C         141.6546  142.0778  165.9300 C.3     1  UNL1        0.0759
     33 C         143.0233  141.7234  165.4289 C.2     1  UNL1       -0.0158
     34 C         143.6369  142.5063  164.3061 C.2     1  UNL1        0.0678
     35 C         142.8819  143.6435  163.6845 C.2     1  UNL1        0.0123
     36 C         141.5132  143.9979  164.1856 C.2     1  UNL1        0.1019
     37 C         145.0056  142.1518  163.8051 C.3     1  UNL1        0.4183
     38 F         146.3743  141.7974  163.3040 F       1  UNL1       -0.1659
     39 F         144.9963  143.3642  162.9218 F       1  UNL1       -0.1659
     40 F         145.0150  140.9395  164.6883 F       1  UNL1       -0.1659
@<TRIPOS>BOND
     1    19    20    1
     2    20    13    1
     3    13    14   ar
     4    14    15   ar
     5    15    16   ar
     6    16     5    1
     7     5     6    1
     8     5     7    1
     9     7     8    1
    10     8     9    1
    11     9     1    1
    12     1     2    1
    13     2     3    1
    14     3    21    1
    15    21    22   am
    16    22    23    2
    17    22    25    1
    18    25    26    1
    19    26    28    1
    20    28    29    2
    21    29    30    1
    22    30    31    2
    23    31    32    1
    24    32    33    1
    25    33    34    2
    26    34    37    1
    27    37    38    1
    28    37    39    1
    29    37    40    1
    30    34    35    1
    31    35    36    2
    32     3     4    1
    33     9    10    1
    34    10    11    1
    35    16    17   ar
    36    17    18   ar
    37    18    13   ar
    38    11     5    1
    39     4     1    1
    40    36    28    1
    41    36    31    1
    42     6    12    1
    43    21    24    1
    44    26    27    1
@<TRIPOS>MOLECULE
*****
 40 44 0 0 0
SMALL
GASTEIGER

@<TRIPOS>ATOM
      1 N         143.1828  141.1596  158.6804 N.3     1  UNL1       -0.2711
      2 C         144.1508  142.1449  159.2654 C.3     1  UNL1        0.0933
      3 C         143.0180  142.8521  159.9487 C.3     1  UNL1        0.1035
      4 C         142.0501  141.8668  159.3636 C.3     1  UNL1        0.0933
      5 C         143.5323  137.5694  155.9900 C.3     1  UNL1        0.1085
      6 O         144.1410  137.1715  154.6781 O.3     1  UNL1       -0.3826
      7 C         142.7741  137.4688  157.2804 C.3     1  UNL1        0.0326
      8 C         142.6576  138.6654  158.1771 C.3     1  UNL1        0.0187
      9 C         143.2993  139.9629  157.7836 C.3     1  UNL1        0.0578
     10 C         144.0575  140.0636  156.4932 C.3     1  UNL1        0.0187
     11 C         144.1739  138.8668  155.5964 C.3     1  UNL1        0.0326
     12 H         143.9404  136.2398  154.4979 H       1  UNL1        0.2107
     13 C         142.2412  133.2626  155.8039 C.ar    1  UNL1        0.2250
     14 C         142.0218  134.1630  154.6244 C.ar    1  UNL1        0.0575
     15 C         142.4522  135.5985  154.6865 C.ar    1  UNL1        0.0043
     16 C         143.1019  136.1338  155.9280 C.ar    1  UNL1        0.0211
     17 C         143.3213  135.2334  157.1075 C.ar    1  UNL1        0.1000
     18 N         142.8909  133.7978  157.0454 N.ar    1  UNL1       -0.2104
     19 C         140.8562  131.3755  154.6765 C.3     1  UNL1        0.2542
     20 O         141.8108  131.8270  155.7418 O.3     1  UNL1       -0.4561
     21 N         142.9015  144.0488  160.8455 N.am    1  UNL1       -0.2999
     22 C         142.8967  143.8721  162.3350 C.2     1  UNL1        0.2701
     23 O         143.0084  142.4987  162.9277 O.2     1  UNL1       -0.2706
     24 H         142.8282  144.9502  160.4565 H       1  UNL1        0.1496
     25 C         142.7802  145.0688  163.2318 C.3     1  UNL1        0.2850
     26 N         141.4579  145.7581  163.3948 N.pl3   1  UNL1       -0.2091
     27 H         141.4250  146.6959  163.6925 H       1  UNL1        0.2928
     28 C         140.1857  145.0184  163.1041 C.2     1  UNL1        0.3493
     29 N         139.2064  145.3428  162.0151 N.2     1  UNL1        0.0798
     30 N         138.0850  144.3493  162.0894 N.2     1  UNL1       -0.0381
     31 C         138.3712  143.4110  163.2241 C.2     1  UNL1        0.1169
     32 C         137.6174  142.2336  163.7674 C.3     1  UNL1        0.0759
     33 C         138.1618  141.4696  164.9378 C.2     1  UNL1       -0.0158
     34 C         139.4602  141.8831  165.5649 C.2     1  UNL1        0.0678
     35 C         140.2140  143.0606  165.0217 C.2     1  UNL1        0.0123
     36 C         139.6696  143.8246  163.8513 C.2     1  UNL1        0.1019
     37 C         140.0047  141.1191  166.7354 C.3     1  UNL1        0.4183
     38 F         140.5491  140.3551  167.9057 F       1  UNL1       -0.1659
     39 F         140.3106  142.4098  167.4356 F       1  UNL1       -0.1659
     40 F         139.6987  139.8284  166.0351 F       1  UNL1       -0.1659
@<TRIPOS>BOND
     1    19    20    1
     2    20    13    1
     3    13    14   ar
     4    14    15   ar
     5    15    16   ar
     6    16     5    1
     7     5     6    1
     8     5     7    1
     9     7     8    1
    10     8     9    1
    11     9     1    1
    12     1     2    1
    13     2     3    1
    14     3    21    1
    15    21    22   am
    16    22    23    2
    17    22    25    1
    18    25    26    1
    19    26    28    1
    20    28    29    2
    21    29    30    1
    22    30    31    2
    23    31    32    1
    24    32    33    1
    25    33    34    2
    26    34    37    1
    27    37    38    1
    28    37    39    1
    29    37    40    1
    30    34    35    1
    31    35    36    2
    32     3     4    1
    33     9    10    1
    34    10    11    1
    35    16    17   ar
    36    17    18   ar
    37    18    13   ar
    38    11     5    1
    39     4     1    1
    40    36    28    1
    41    36    31    1
    42     6    12    1
    43    21    24    1
    44    26    27    1
@<TRIPOS>MOLECULE
*****
 40 44 0 0 0
SMALL
GASTEIGER

@<TRIPOS>ATOM
      1 N         144.4427  142.5341  158.7992 N.3     1  UNL1       -0.2711
      2 C         144.4883  142.0768  160.2271 C.3     1  UNL1        0.0933
      3 C         143.2303  142.8426  160.5124 C.3     1  UNL1        0.1035
      4 C         143.1848  143.2998  159.0846 C.3     1  UNL1        0.0933
      5 C         147.0142  141.8797  155.1648 C.3     1  UNL1        0.1085
      6 O         146.9430  141.2509  153.8049 O.3     1  UNL1       -0.3826
      7 C         147.5663  142.6109  156.3525 C.3     1  UNL1        0.0326
      8 C         146.7092  142.8290  157.5639 C.3     1  UNL1        0.0187
      9 C         145.2999  142.3159  157.5877 C.3     1  UNL1        0.0578
     10 C         144.7477  141.5848  156.4001 C.3     1  UNL1        0.0187
     11 C         145.6049  141.3666  155.1886 C.3     1  UNL1        0.0326
     12 H         147.7924  141.3653  153.3508 H       1  UNL1        0.2107
     13 C         151.1680  142.7639  153.6766 C.ar    1  UNL1        0.2250
     14 C         149.9777  143.3216  152.9539 C.ar    1  UNL1        0.0575
     15 C         148.5932  143.0269  153.4500 C.ar    1  UNL1        0.0043
     16 C         148.3988  142.1744  154.6688 C.ar    1  UNL1        0.0211
     17 C         149.5890  141.6166  155.3915 C.ar    1  UNL1        0.1000
     18 N         150.9736  141.9114  154.8954 N.ar    1  UNL1       -0.2104
     19 C         152.7983  144.2546  152.3090 C.3     1  UNL1        0.2542
     20 O         152.5525  143.0586  153.1805 O.3     1  UNL1       -0.4561
     21 N         142.3732  143.0607  161.7239 N.am    1  UNL1       -0.2999
     22 C         142.7547  144.1008  162.7351 C.2     1  UNL1        0.2701
     23 O         143.9934  144.9228  162.5349 O.2     1  UNL1       -0.2706
     24 H         141.5602  142.5213  161.8553 H       1  UNL1        0.1496
     25 C         141.8975  144.3189  163.9466 C.3     1  UNL1        0.2850
     26 N         141.7577  143.2329  164.9719 N.pl3   1  UNL1       -0.2091
     27 H         142.3527  143.2167  165.7560 H       1  UNL1        0.2928
     28 C         140.7113  142.1716  164.8023 C.2     1  UNL1        0.3493
     29 N         140.0575  141.7763  163.5115 N.2     1  UNL1        0.0798
     30 N         139.0771  140.6798  163.8053 N.2     1  UNL1       -0.0381
     31 C         139.1249  140.3974  165.2777 C.2     1  UNL1        0.1169
     32 C         138.3793  139.4198  166.1369 C.3     1  UNL1        0.0759
     33 C         138.6437  139.3642  167.6124 C.2     1  UNL1       -0.0158
     34 C         139.6537  140.2862  168.2286 C.2     1  UNL1        0.0678
     35 C         140.3993  141.2638  167.3694 C.2     1  UNL1        0.0123
     36 C         140.1349  141.3194  165.8939 C.2     1  UNL1        0.1019
     37 C         139.9181  140.2306  169.7041 C.3     1  UNL1        0.4183
     38 F         140.1824  140.1751  171.1795 F       1  UNL1       -0.1659
     39 F         141.0920  139.3295  169.4598 F       1  UNL1       -0.1659
     40 F         138.7442  141.1318  169.9483 F       1  UNL1       -0.1659
@<TRIPOS>BOND
     1    19    20    1
     2    20    13    1
     3    13    14   ar
     4    14    15   ar
     5    15    16   ar
     6    16     5    1
     7     5     6    1
     8     5     7    1
     9     7     8    1
    10     8     9    1
    11     9     1    1
    12     1     2    1
    13     2     3    1
    14     3    21    1
    15    21    22   am
    16    22    23    2
    17    22    25    1
    18    25    26    1
    19    26    28    1
    20    28    29    2
    21    29    30    1
    22    30    31    2
    23    31    32    1
    24    32    33    1
    25    33    34    2
    26    34    37    1
    27    37    38    1
    28    37    39    1
    29    37    40    1
    30    34    35    1
    31    35    36    2
    32     3     4    1
    33     9    10    1
    34    10    11    1
    35    16    17   ar
    36    17    18   ar
    37    18    13   ar
    38    11     5    1
    39     4     1    1
    40    36    28    1
    41    36    31    1
    42     6    12    1
    43    21    24    1
    44    26    27    1
@<TRIPOS>MOLECULE
*****
 40 44 0 0 0
SMALL
GASTEIGER

@<TRIPOS>ATOM
      1 N         141.5457  140.8605  158.2110 N.3     1  UNL1       -0.2711
      2 C         141.3588  142.3048  157.8516 C.3     1  UNL1        0.0933
      3 C         140.7130  142.5524  159.1828 C.3     1  UNL1        0.1035
      4 C         140.9000  141.1082  159.5420 C.3     1  UNL1        0.0933
      5 C         143.3120  137.2715  156.1497 C.3     1  UNL1        0.1085
      6 O         144.3934  136.9260  155.1693 O.3     1  UNL1       -0.3826
      7 C         142.1683  137.1004  157.1051 C.3     1  UNL1        0.0326
      8 C         141.5796  138.2967  157.7921 C.3     1  UNL1        0.0187
      9 C         142.1345  139.6642  157.5239 C.3     1  UNL1        0.0578
     10 C         143.2782  139.8353  156.5686 C.3     1  UNL1        0.0187
     11 C         143.8669  138.6390  155.8815 C.3     1  UNL1        0.0326
     12 H         144.3992  135.9678  155.0187 H       1  UNL1        0.2107
     13 C         142.7737  132.8090  155.9330 C.ar    1  UNL1        0.2250
     14 C         142.7590  133.6282  154.6765 C.ar    1  UNL1        0.0575
     15 C         142.9385  135.1156  154.7488 C.ar    1  UNL1        0.0043
     16 C         143.1326  135.7840  156.0775 C.ar    1  UNL1        0.0211
     17 C         143.1472  134.9649  157.3340 C.ar    1  UNL1        0.1000
     18 N         142.9678  133.4774  157.2618 N.ar    1  UNL1       -0.2104
     19 C         141.5363  130.7359  154.9731 C.3     1  UNL1        0.2542
     20 O         142.5942  131.3216  155.8607 O.3     1  UNL1       -0.4561
     21 N         140.1242  143.7488  159.8699 N.am    1  UNL1       -0.2999
     22 C         140.9846  144.6080  160.7481 C.2     1  UNL1        0.2701
     23 O         142.4337  144.2710  160.9393 O.2     1  UNL1       -0.2706
     24 H         139.1732  143.9700  159.7444 H       1  UNL1        0.1496
     25 C         140.3959  145.8044  161.4352 C.3     1  UNL1        0.2850
     26 N         139.5361  145.6234  162.6511 N.pl3   1  UNL1       -0.2091
     27 H         139.3998  146.3737  163.2737 H       1  UNL1        0.2928
     28 C         138.8842  144.2991  162.9183 C.2     1  UNL1        0.3493
     29 N         137.8126  143.6600  162.0858 N.2     1  UNL1        0.0798
     30 N         137.4556  142.3474  162.7179 N.2     1  UNL1       -0.0381
     31 C         138.3066  142.1753  163.9411 C.2     1  UNL1        0.1169
     32 C         138.3915  141.0761  164.9582 C.3     1  UNL1        0.0759
     33 C         139.3594  141.1831  166.0991 C.2     1  UNL1       -0.0158
     34 C         140.2423  142.3894  166.2229 C.2     1  UNL1        0.0678
     35 C         140.1574  143.4886  165.2059 C.2     1  UNL1        0.0123
     36 C         139.1895  143.3816  164.0650 C.2     1  UNL1        0.1019
     37 C         141.2103  142.4964  167.3639 C.3     1  UNL1        0.4183
     38 F         142.1782  142.6033  168.5048 F       1  UNL1       -0.1659
     39 F         140.2707  143.4253  168.0739 F       1  UNL1       -0.1659
     40 F         142.1498  141.5674  166.6539 F       1  UNL1       -0.1659
@<TRIPOS>BOND
     1    19    20    1
     2    20    13    1
     3    13    14   ar
     4    14    15   ar
     5    15    16   ar
     6    16     5    1
     7     5     6    1
     8     5     7    1
     9     7     8    1
    10     8     9    1
    11     9     1    1
    12     1     2    1
    13     2     3    1
    14     3    21    1
    15    21    22   am
    16    22    23    2
    17    22    25    1
    18    25    26    1
    19    26    28    1
    20    28    29    2
    21    29    30    1
    22    30    31    2
    23    31    32    1
    24    32    33    1
    25    33    34    2
    26    34    37    1
    27    37    38    1
    28    37    39    1
    29    37    40    1
    30    34    35    1
    31    35    36    2
    32     3     4    1
    33     9    10    1
    34    10    11    1
    35    16    17   ar
    36    17    18   ar
    37    18    13   ar
    38    11     5    1
    39     4     1    1
    40    36    28    1
    41    36    31    1
    42     6    12    1
    43    21    24    1
    44    26    27    1
@<TRIPOS>MOLECULE
*****
 40 44 0 0 0
SMALL
GASTEIGER

@<TRIPOS>ATOM
      1 N         141.5790  140.1798  158.1241 N.3     1  UNL1       -0.2711
      2 C         141.6743  140.7007  159.5275 C.3     1  UNL1        0.0933
      3 C         141.6222  142.1073  159.0088 C.3     1  UNL1        0.1035
      4 C         141.5270  141.5863  157.6055 C.3     1  UNL1        0.0933
      5 C         141.4875  136.0909  156.2471 C.3     1  UNL1        0.1085
      6 O         140.6308  135.2644  155.3346 O.3     1  UNL1       -0.3826
      7 C         142.6256  136.4793  157.1438 C.3     1  UNL1        0.0326
      8 C         142.6561  137.8422  157.7694 C.3     1  UNL1        0.0187
      9 C         141.5485  138.8168  157.4984 C.3     1  UNL1        0.0578
     10 C         140.4104  138.4284  156.6018 C.3     1  UNL1        0.0187
     11 C         140.3799  137.0655  155.9762 C.3     1  UNL1        0.0326
     12 H         141.0397  134.3940  155.2076 H       1  UNL1        0.2107
     13 C         143.9177  132.3060  156.1093 C.ar    1  UNL1        0.2250
     14 C         142.7056  132.4512  155.2377 C.ar    1  UNL1        0.0575
     15 C         141.8956  133.7129  155.2836 C.ar    1  UNL1        0.0043
     16 C         142.2976  134.8293  156.2012 C.ar    1  UNL1        0.0211
     17 C         143.5096  134.6841  157.0729 C.ar    1  UNL1        0.1000
     18 N         144.3197  133.4224  157.0269 N.ar    1  UNL1       -0.2104
     19 C         144.6574  130.1513  154.8602 C.3     1  UNL1        0.2542
     20 O         144.7277  131.0444  156.0633 O.3     1  UNL1       -0.4561
     21 N         141.6527  143.4703  159.6344 N.am    1  UNL1       -0.2999
     22 C         140.3711  144.2052  159.8939 C.2     1  UNL1        0.2701
     23 O         139.0590  143.5772  159.5279 O.2     1  UNL1       -0.2706
     24 H         142.5139  143.8825  159.8747 H       1  UNL1        0.1496
     25 C         140.4016  145.5681  160.5196 C.3     1  UNL1        0.2850
     26 N         139.4234  145.9189  161.6014 N.pl3   1  UNL1       -0.2091
     27 H         139.0407  146.8250  161.6441 H       1  UNL1        0.2928
     28 C         139.0283  144.8891  162.6180 C.2     1  UNL1        0.3493
     29 N         137.6392  144.3784  162.8617 N.2     1  UNL1        0.0798
     30 N         137.7054  143.3629  163.9637 N.2     1  UNL1       -0.0381
     31 C         139.1355  143.2460  164.4011 C.2     1  UNL1        0.1169
     32 C         139.7988  142.4026  165.4492 C.3     1  UNL1        0.0759
     33 C         141.2797  142.5024  165.6655 C.2     1  UNL1       -0.0158
     34 C         142.0973  143.4456  164.8338 C.2     1  UNL1        0.0678
     35 C         141.4340  144.2891  163.7857 C.2     1  UNL1        0.0123
     36 C         139.9531  144.1893  163.5693 C.2     1  UNL1        0.1019
     37 C         143.5783  143.5454  165.0502 C.3     1  UNL1        0.4183
     38 F         145.0592  143.6451  165.2667 F       1  UNL1       -0.1659
     39 F         143.5942  144.8633  164.3342 F       1  UNL1       -0.1659
     40 F         143.5624  142.2274  165.7663 F       1  UNL1       -0.1659
@<TRIPOS>BOND
     1    19    20    1
     2    20    13    1
     3    13    14   ar
     4    14    15   ar
     5    15    16   ar
     6    16     5    1
     7     5     6    1
     8     5     7    1
     9     7     8    1
    10     8     9    1
    11     9     1    1
    12     1     2    1
    13     2     3    1
    14     3    21    1
    15    21    22   am
    16    22    23    2
    17    22    25    1
    18    25    26    1
    19    26    28    1
    20    28    29    2
    21    29    30    1
    22    30    31    2
    23    31    32    1
    24    32    33    1
    25    33    34    2
    26    34    37    1
    27    37    38    1
    28    37    39    1
    29    37    40    1
    30    34    35    1
    31    35    36    2
    32     3     4    1
    33     9    10    1
    34    10    11    1
    35    16    17   ar
    36    17    18   ar
    37    18    13   ar
    38    11     5    1
    39     4     1    1
    40    36    28    1
    41    36    31    1
    42     6    12    1
    43    21    24    1
    44    26    27    1
@<TRIPOS>MOLECULE
*****
 40 44 0 0 0
SMALL
GASTEIGER

@<TRIPOS>ATOM
      1 N         140.4624  143.0627  158.3345 N.3     1  UNL1       -0.2711
      2 C         140.2251  141.5830  158.3989 C.3     1  UNL1        0.0933
      3 C         141.2135  141.4734  159.5220 C.3     1  UNL1        0.1035
      4 C         141.4506  142.9531  159.4576 C.3     1  UNL1        0.0933
      5 C         138.8692  146.4342  155.8156 C.3     1  UNL1        0.1085
      6 O         137.9094  146.6716  154.6876 O.3     1  UNL1       -0.3826
      7 C         139.8798  146.7123  156.8887 C.3     1  UNL1        0.0326
      8 C         140.4108  145.5885  157.7283 C.3     1  UNL1        0.0187
      9 C         139.9313  144.1866  157.4949 C.3     1  UNL1        0.0578
     10 C         138.9207  143.9084  156.4219 C.3     1  UNL1        0.0187
     11 C         138.3897  145.0322  155.5822 C.3     1  UNL1        0.0326
     12 H         137.8962  147.6162  154.4677 H       1  UNL1        0.2107
     13 C         139.3080  150.8876  155.3406 C.ar    1  UNL1        0.2250
     14 C         139.8478  149.9642  154.2887 C.ar    1  UNL1        0.0575
     15 C         139.7015  148.4798  154.4472 C.ar    1  UNL1        0.0043
     16 C         139.0154  147.9186  155.6573 C.ar    1  UNL1        0.0211
     17 C         138.4757  148.8419  156.7091 C.ar    1  UNL1        0.1000
     18 N         138.6220  150.3264  156.5507 N.ar    1  UNL1       -0.2104
     19 C         138.2750  153.2022  154.7701 C.3     1  UNL1        0.2542
     20 O         139.4543  152.3719  155.1822 O.3     1  UNL1       -0.4561
     21 N         141.7445  140.3496  160.3617 N.am    1  UNL1       -0.2999
     22 C         142.9275  139.5564  159.8914 C.2     1  UNL1        0.2701
     23 O         143.5795  139.8869  158.5816 O.2     1  UNL1       -0.2706
     24 H         141.3166  140.1327  161.2214 H       1  UNL1        0.1496
     25 C         143.4586  138.4325  160.7311 C.3     1  UNL1        0.2850
     26 N         144.5521  138.6907  161.7249 N.pl3   1  UNL1       -0.2091
     27 H         145.4226  138.2415  161.6268 H       1  UNL1        0.2928
     28 C         144.3193  139.6334  162.8682 C.2     1  UNL1        0.3493
     29 N         145.1981  140.7865  163.2532 N.2     1  UNL1        0.0798
     30 N         144.5886  141.4542  164.4502 N.2     1  UNL1       -0.0381
     31 C         143.3332  140.7138  164.8049 C.2     1  UNL1        0.1169
     32 C         142.3202  140.9190  165.8919 C.3     1  UNL1        0.0759
     33 C         141.1407  139.9989  166.0012 C.2     1  UNL1       -0.0158
     34 C         140.9742  138.8735  165.0235 C.2     1  UNL1        0.0678
     35 C         141.9872  138.6684  163.9365 C.2     1  UNL1        0.0123
     36 C         143.1668  139.5885  163.8272 C.2     1  UNL1        0.1019
     37 C         139.7946  137.9533  165.1328 C.3     1  UNL1        0.4183
     38 F         138.6151  137.0332  165.2421 F       1  UNL1       -0.1659
     39 F         138.8962  139.1323  165.3627 F       1  UNL1       -0.1659
     40 F         140.6930  136.7744  164.9029 F       1  UNL1       -0.1659
@<TRIPOS>BOND
     1    19    20    1
     2    20    13    1
     3    13    14   ar
     4    14    15   ar
     5    15    16   ar
     6    16     5    1
     7     5     6    1
     8     5     7    1
     9     7     8    1
    10     8     9    1
    11     9     1    1
    12     1     2    1
    13     2     3    1
    14     3    21    1
    15    21    22   am
    16    22    23    2
    17    22    25    1
    18    25    26    1
    19    26    28    1
    20    28    29    2
    21    29    30    1
    22    30    31    2
    23    31    32    1
    24    32    33    1
    25    33    34    2
    26    34    37    1
    27    37    38    1
    28    37    39    1
    29    37    40    1
    30    34    35    1
    31    35    36    2
    32     3     4    1
    33     9    10    1
    34    10    11    1
    35    16    17   ar
    36    17    18   ar
    37    18    13   ar
    38    11     5    1
    39     4     1    1
    40    36    28    1
    41    36    31    1
    42     6    12    1
    43    21    24    1
    44    26    27    1
@<TRIPOS>MOLECULE
*****
 40 44 0 0 0
SMALL
GASTEIGER

@<TRIPOS>ATOM
      1 N         141.2251  143.5427  159.9168 N.3     1  UNL1       -0.2711
      2 C         142.4263  143.7698  160.7861 C.3     1  UNL1        0.0933
      3 C         142.0118  142.6220  161.6585 C.3     1  UNL1        0.1035
      4 C         140.8108  142.3950  160.7892 C.3     1  UNL1        0.0933
      5 C         139.5561  145.4957  156.2222 C.3     1  UNL1        0.1085
      6 O         138.6939  145.1685  155.0392 O.3     1  UNL1       -0.3826
      7 C         140.4219  146.2828  157.1608 C.3     1  UNL1        0.0326
      8 C         140.9781  145.6319  158.3922 C.3     1  UNL1        0.0187
      9 C         140.6688  144.1937  158.6853 C.3     1  UNL1        0.0578
     10 C         139.8031  143.4065  157.7467 C.3     1  UNL1        0.0187
     11 C         139.2468  144.0575  156.5152 C.3     1  UNL1        0.0326
     12 H         138.6069  145.9532  154.4757 H       1  UNL1        0.2107
     13 C         139.5859  149.4696  154.1109 C.ar    1  UNL1        0.2250
     14 C         138.8668  149.3205  155.4189 C.ar    1  UNL1        0.0575
     15 C         138.8569  147.9959  156.1226 C.ar    1  UNL1        0.0043
     16 C         139.5661  146.8203  155.5184 C.ar    1  UNL1        0.0211
     17 C         140.2852  146.9693  154.2105 C.ar    1  UNL1        0.1000
     18 N         140.2951  148.2940  153.5067 N.ar    1  UNL1       -0.2104
     19 C         138.9203  151.9797  154.0304 C.3     1  UNL1        0.2542
     20 O         139.5958  150.7942  153.4073 O.3     1  UNL1       -0.4561
     21 N         142.5682  141.9710  162.8901 N.am    1  UNL1       -0.2999
     22 C         143.7513  141.0550  162.7848 C.2     1  UNL1        0.2701
     23 O         144.3780  140.7899  161.4481 O.2     1  UNL1       -0.2706
     24 H         142.1568  142.1450  163.7674 H       1  UNL1        0.1496
     25 C         144.3076  140.4040  164.0164 C.3     1  UNL1        0.2850
     26 N         143.9419  138.9871  164.3461 N.pl3   1  UNL1       -0.2091
     27 H         144.5853  138.4094  164.8168 H       1  UNL1        0.2928
     28 C         142.5958  138.4503  163.9587 C.2     1  UNL1        0.3493
     29 N         142.2822  137.6685  162.7176 N.2     1  UNL1        0.0798
     30 N         140.8196  137.3362  162.7364 N.2     1  UNL1       -0.0381
     31 C         140.2292  137.9127  163.9890 C.2     1  UNL1        0.1169
     32 C         138.8339  137.8997  164.5393 C.3     1  UNL1        0.0759
     33 C         138.5364  138.5752  165.8451 C.2     1  UNL1       -0.0158
     34 C         139.6342  139.2637  166.6006 C.2     1  UNL1        0.0678
     35 C         141.0295  139.2768  166.0503 C.2     1  UNL1        0.0123
     36 C         141.3270  138.6013  164.7445 C.2     1  UNL1        0.1019
     37 C         139.3366  139.9393  167.9065 C.3     1  UNL1        0.4183
     38 F         139.0389  140.6147  169.2122 F       1  UNL1       -0.1659
     39 F         140.6370  140.6816  167.8188 F       1  UNL1       -0.1659
     40 F         138.0361  139.1969  167.9941 F       1  UNL1       -0.1659
@<TRIPOS>BOND
     1    19    20    1
     2    20    13    1
     3    13    14   ar
     4    14    15   ar
     5    15    16   ar
     6    16     5    1
     7     5     6    1
     8     5     7    1
     9     7     8    1
    10     8     9    1
    11     9     1    1
    12     1     2    1
    13     2     3    1
    14     3    21    1
    15    21    22   am
    16    22    23    2
    17    22    25    1
    18    25    26    1
    19    26    28    1
    20    28    29    2
    21    29    30    1
    22    30    31    2
    23    31    32    1
    24    32    33    1
    25    33    34    2
    26    34    37    1
    27    37    38    1
    28    37    39    1
    29    37    40    1
    30    34    35    1
    31    35    36    2
    32     3     4    1
    33     9    10    1
    34    10    11    1
    35    16    17   ar
    36    17    18   ar
    37    18    13   ar
    38    11     5    1
    39     4     1    1
    40    36    28    1
    41    36    31    1
    42     6    12    1
    43    21    24    1
    44    26    27    1
@<TRIPOS>MOLECULE
*****
 40 44 0 0 0
SMALL
GASTEIGER

@<TRIPOS>ATOM
      1 N         139.2876  144.8700  156.0223 N.3     1  UNL1       -0.2711
      2 C         140.0337  144.0493  157.0322 C.3     1  UNL1        0.0933
      3 C         138.9909  142.9758  156.9301 C.3     1  UNL1        0.1035
      4 C         138.2449  143.7965  155.9203 C.3     1  UNL1        0.0933
      5 C         139.9167  148.8881  154.0965 C.3     1  UNL1        0.1085
      6 O         140.6667  149.5113  152.9567 O.3     1  UNL1       -0.3826
      7 C         139.0178  148.7612  155.2906 C.3     1  UNL1        0.0326
      8 C         138.8081  147.4219  155.9325 C.3     1  UNL1        0.0187
      9 C         139.4973  146.2094  155.3804 C.3     1  UNL1        0.0578
     10 C         140.3962  146.3363  154.1863 C.3     1  UNL1        0.0187
     11 C         140.6059  147.6757  153.5444 C.3     1  UNL1        0.0326
     12 H         140.4823  150.4632  152.9304 H       1  UNL1        0.2107
     13 C         138.6303  153.1748  154.5655 C.ar    1  UNL1        0.2250
     14 C         138.7685  152.5787  153.1959 C.ar    1  UNL1        0.0575
     15 C         139.1973  151.1499  153.0397 C.ar    1  UNL1        0.0043
     16 C         139.4879  150.3170  154.2529 C.ar    1  UNL1        0.0211
     17 C         139.3498  150.9130  155.6224 C.ar    1  UNL1        0.1000
     18 N         138.9209  152.3420  155.7787 N.ar    1  UNL1       -0.2104
     19 C         138.9014  155.6852  153.9532 C.3     1  UNL1        0.2542
     20 O         138.2015  154.6037  154.7217 O.3     1  UNL1       -0.4561
     21 N         138.7812  141.6364  157.5721 N.am    1  UNL1       -0.2999
     22 C         138.3503  141.5514  159.0063 C.2     1  UNL1        0.2701
     23 O         138.1292  142.8058  159.7986 O.2     1  UNL1       -0.2706
     24 H         138.9264  140.8131  157.0521 H       1  UNL1        0.1496
     25 C         138.1406  140.2121  159.6482 C.3     1  UNL1        0.2850
     26 N         137.3181  140.0997  160.8977 N.pl3   1  UNL1       -0.2091
     27 H         136.3733  140.3766  160.8916 H       1  UNL1        0.2928
     28 C         137.9350  139.5655  162.1562 C.2     1  UNL1        0.3493
     29 N         138.2121  138.1227  162.4588 N.2     1  UNL1        0.0798
     30 N         138.8316  138.0458  163.8227 N.2     1  UNL1       -0.0381
     31 C         138.9373  139.4411  164.3632 C.2     1  UNL1        0.1169
     32 C         139.4665  139.9777  165.6600 C.3     1  UNL1        0.0759
     33 C         139.4417  141.4535  165.9269 C.2     1  UNL1       -0.0158
     34 C         138.8876  142.3927  164.8970 C.2     1  UNL1        0.0678
     35 C         138.3583  141.8561  163.6001 C.2     1  UNL1        0.0123
     36 C         138.3832  140.3803  163.3332 C.2     1  UNL1        0.1019
     37 C         138.8627  143.8686  165.1639 C.3     1  UNL1        0.4183
     38 F         138.8378  145.3444  165.4309 F       1  UNL1       -0.1659
     39 F         140.3209  143.8299  165.5136 F       1  UNL1       -0.1659
     40 F         137.4046  143.9073  164.8143 F       1  UNL1       -0.1659
@<TRIPOS>BOND
     1    19    20    1
     2    20    13    1
     3    13    14   ar
     4    14    15   ar
     5    15    16   ar
     6    16     5    1
     7     5     6    1
     8     5     7    1
     9     7     8    1
    10     8     9    1
    11     9     1    1
    12     1     2    1
    13     2     3    1
    14     3    21    1
    15    21    22   am
    16    22    23    2
    17    22    25    1
    18    25    26    1
    19    26    28    1
    20    28    29    2
    21    29    30    1
    22    30    31    2
    23    31    32    1
    24    32    33    1
    25    33    34    2
    26    34    37    1
    27    37    38    1
    28    37    39    1
    29    37    40    1
    30    34    35    1
    31    35    36    2
    32     3     4    1
    33     9    10    1
    34    10    11    1
    35    16    17   ar
    36    17    18   ar
    37    18    13   ar
    38    11     5    1
    39     4     1    1
    40    36    28    1
    41    36    31    1
    42     6    12    1
    43    21    24    1
    44    26    27    1
@<TRIPOS>MOLECULE
*****
 40 44 0 0 0
SMALL
GASTEIGER

@<TRIPOS>ATOM
      1 N         141.4901  143.0654  157.7635 N.3     1  UNL1       -0.2711
      2 C         141.6888  141.5895  157.5833 C.3     1  UNL1        0.0933
      3 C         142.6033  141.5676  158.7723 C.3     1  UNL1        0.1035
      4 C         142.4045  143.0434  158.9523 C.3     1  UNL1        0.0933
      5 C         139.1287  146.2426  155.6235 C.3     1  UNL1        0.1085
      6 O         137.8571  146.3997  154.8437 O.3     1  UNL1       -0.3826
      7 C         140.4233  146.5944  156.2948 C.3     1  UNL1        0.0326
      8 C         141.2103  145.5354  157.0080 C.3     1  UNL1        0.0187
      9 C         140.7030  144.1244  157.0501 C.3     1  UNL1        0.0578
     10 C         139.4085  143.7726  156.3790 C.3     1  UNL1        0.0187
     11 C         138.6214  144.8317  155.6657 C.3     1  UNL1        0.0326
     12 H         137.7604  147.3240  154.5657 H       1  UNL1        0.2107
     13 C         139.3263  150.6392  154.6847 C.ar    1  UNL1        0.2250
     14 C         139.9883  149.6474  153.7746 C.ar    1  UNL1        0.0575
     15 C         139.9224  148.1819  154.0876 C.ar    1  UNL1        0.0043
     16 C         139.1946  147.7081  155.3106 C.ar    1  UNL1        0.0211
     17 C         138.5326  148.6999  156.2207 C.ar    1  UNL1        0.1000
     18 N         138.5985  150.1654  155.9077 N.ar    1  UNL1       -0.2104
     19 C         138.3817  152.7211  153.4503 C.3     1  UNL1        0.2542
     20 O         139.3922  152.1047  154.3717 O.3     1  UNL1       -0.4561
     21 N         143.3904  140.5086  159.4856 N.am    1  UNL1       -0.2999
     22 C         142.7236  139.6431  160.5134 C.2     1  UNL1        0.2701
     23 O         141.2698  139.8367  160.8279 O.2     1  UNL1       -0.2706
     24 H         144.3446  140.3815  159.2792 H       1  UNL1        0.1496
     25 C         143.5107  138.5840  161.2267 C.3     1  UNL1        0.2850
     26 N         144.5555  138.9740  162.2300 N.pl3   1  UNL1       -0.2091
     27 H         145.2129  138.3097  162.5396 H       1  UNL1        0.2928
     28 C         144.5985  140.3759  162.7617 C.2     1  UNL1        0.3493
     29 N         145.1570  141.5722  162.0496 N.2     1  UNL1        0.0798
     30 N         144.9942  142.7633  162.9466 N.2     1  UNL1       -0.0381
     31 C         144.3351  142.3032  164.2131 C.2     1  UNL1        0.1169
     32 C         143.9260  143.0372  165.4556 C.3     1  UNL1        0.0759
     33 C         143.2723  142.2957  166.5838 C.2     1  UNL1       -0.0158
     34 C         143.0277  140.8202  166.4695 C.2     1  UNL1        0.0678
     35 C         143.4368  140.0862  165.2270 C.2     1  UNL1        0.0123
     36 C         144.0905  140.8277  164.0988 C.2     1  UNL1        0.1019
     37 C         142.3740  140.0787  167.5977 C.3     1  UNL1        0.4183
     38 F         141.7204  139.3373  168.7260 F       1  UNL1       -0.1659
     39 F         142.0208  138.9628  166.6597 F       1  UNL1       -0.1659
     40 F         142.7273  141.1947  168.5357 F       1  UNL1       -0.1659
@<TRIPOS>BOND
     1    19    20    1
     2    20    13    1
     3    13    14   ar
     4    14    15   ar
     5    15    16   ar
     6    16     5    1
     7     5     6    1
     8     5     7    1
     9     7     8    1
    10     8     9    1
    11     9     1    1
    12     1     2    1
    13     2     3    1
    14     3    21    1
    15    21    22   am
    16    22    23    2
    17    22    25    1
    18    25    26    1
    19    26    28    1
    20    28    29    2
    21    29    30    1
    22    30    31    2
    23    31    32    1
    24    32    33    1
    25    33    34    2
    26    34    37    1
    27    37    38    1
    28    37    39    1
    29    37    40    1
    30    34    35    1
    31    35    36    2
    32     3     4    1
    33     9    10    1
    34    10    11    1
    35    16    17   ar
    36    17    18   ar
    37    18    13   ar
    38    11     5    1
    39     4     1    1
    40    36    28    1
    41    36    31    1
    42     6    12    1
    43    21    24    1
    44    26    27    1
