@<TRIPOS>MOLECULE
*****
 32 34 0 0 0
SMALL
GASTEIGER

@<TRIPOS>ATOM
      1 C         140.5762  140.4520  166.7027 C.ar    1  UNL1        0.0291
      2 C         141.0773  141.1302  165.4622 C.ar    1  UNL1        0.0145
      3 C         140.1873  141.2492  164.2607 C.ar    1  UNL1        0.0505
      4 C         138.7960  140.6898  164.2996 C.ar    1  UNL1        0.0170
      5 C         138.2949  140.0115  165.5401 C.ar    1  UNL1        0.0306
      6 C         139.1849  139.8926  166.7416 C.ar    1  UNL1        0.1380
      7 F         138.6837  139.2143  167.9820 F       1  UNL1       -0.2044
      8 C         140.4271  143.6678  169.7881 C.3     1  UNL1        0.0150
      9 C         141.1139  142.3713  169.4762 C.3     1  UNL1        0.0893
     10 S         142.1350  141.8164  170.4245 S.3     1  UNL1       -0.0788
     11 C         142.8218  140.5198  170.1126 C.2     1  UNL1        0.1483
     12 N         143.8430  139.9650  171.0610 N.pl3   1  UNL1       -0.3380
     13 N         142.4874  139.7781  168.8525 N.2     1  UNL1       -0.2481
     14 C         141.4662  140.3330  167.9042 C.3     1  UNL1        0.1380
     15 C         141.8439  139.0778  167.1750 C.3     1  UNL1        0.0319
     16 C         140.7795  141.6296  168.2161 C.3     1  UNL1        0.1954
     17 F         139.7582  142.1844  167.2677 F       1  UNL1       -0.2340
     18 H         144.0625  140.4518  171.8881 H       1  UNL1        0.1442
     19 H         144.2938  139.1140  170.8563 H       1  UNL1        0.1442
     20 N         140.6885  141.9275  163.0203 N.am    1  UNL1       -0.2791
     21 C         140.1805  143.2903  162.6533 C.2     1  UNL1        0.2688
     22 O         139.1713  143.9748  163.5268 O.2     1  UNL1       -0.2681
     23 H         141.3508  141.4782  162.4470 H       1  UNL1        0.1552
     24 C         140.6817  143.9687  161.4129 C.ar    1  UNL1        0.1541
     25 C         142.0647  143.6817  160.9078 C.ar    1  UNL1        0.1258
     26 N         142.5659  144.3601  159.6675 N.ar    1  UNL1       -0.2070
     27 C         141.6842  145.3253  158.9320 C.ar    1  UNL1        0.2469
     28 C         140.3012  145.6122  159.4371 C.ar    1  UNL1        0.1566
     29 N         139.8000  144.9339  160.6775 N.ar    1  UNL1       -0.2328
     30 O         142.1854  146.0037  157.6916 O.3     1  UNL1       -0.4265
     31 C         141.4066  145.9008  156.4138 C.3     1  UNL1        0.4044
     32 F         140.2792  146.8528  156.1439 F       1  UNL1       -0.1809
@<TRIPOS>BOND
     1     9     8    1
     2     9    10    1
     3    10    11    1
     4    11    12    1
     5    11    13    2
     6    13    14    1
     7    14    15    1
     8    14     1    1
     9     1     2   ar
    10     2     3   ar
    11     3    20    1
    12    20    21   am
    13    21    22    2
    14    21    24    1
    15    24    25   ar
    16    25    26   ar
    17    26    27   ar
    18    27    30    1
    19    30    31    1
    20    31    32    1
    21    27    28   ar
    22    28    29   ar
    23     3     4   ar
    24     4     5   ar
    25     5     6   ar
    26     6     7    1
    27    14    16    1
    28    16    17    1
    29    16     9    1
    30     6     1   ar
    31    29    24   ar
    32    12    18    1
    33    12    19    1
    34    20    23    1
@<TRIPOS>MOLECULE
*****
 32 34 0 0 0
SMALL
GASTEIGER

@<TRIPOS>ATOM
      1 C         141.8284  140.3172  166.4122 C.ar    1  UNL1        0.0291
      2 C         141.6808  141.3543  165.3387 C.ar    1  UNL1        0.0145
      3 C         142.6834  141.4296  164.2255 C.ar    1  UNL1        0.0505
      4 C         143.8337  140.4676  164.1859 C.ar    1  UNL1        0.0170
      5 C         143.9813  139.4305  165.2595 C.ar    1  UNL1        0.0306
      6 C         142.9787  139.3552  166.3726 C.ar    1  UNL1        0.1380
      7 F         143.1263  138.3180  167.4461 F       1  UNL1       -0.2044
      8 C         142.5412  142.7421  170.0859 C.3     1  UNL1        0.0150
      9 C         141.5622  141.7746  169.4896 C.3     1  UNL1        0.0893
     10 S         140.3405  141.3724  170.2614 S.3     1  UNL1       -0.0788
     11 C         139.3615  140.4050  169.6652 C.2     1  UNL1        0.1483
     12 N         138.1397  140.0028  170.4371 N.pl3   1  UNL1       -0.3380
     13 N         139.6041  139.8397  168.2972 N.2     1  UNL1       -0.2481
     14 C         140.8258  140.2419  167.5254 C.3     1  UNL1        0.1380
     15 C         140.1950  139.3006  166.5425 C.3     1  UNL1        0.0319
     16 C         141.8048  141.2093  168.1216 C.3     1  UNL1        0.1954
     17 F         143.0265  141.6115  167.3497 F       1  UNL1       -0.2340
     18 H         137.9805  140.3738  171.3350 H       1  UNL1        0.1442
     19 H         137.4971  139.3678  170.0457 H       1  UNL1        0.1442
     20 N         142.5358  142.4668  163.1521 N.am    1  UNL1       -0.2791
     21 C         141.8989  142.1057  161.8429 C.2     1  UNL1        0.2688
     22 O         141.4096  140.7075  161.6072 O.2     1  UNL1       -0.2681
     23 H         142.8569  143.3845  163.3068 H       1  UNL1        0.1552
     24 C         141.7512  143.1429  160.7693 C.ar    1  UNL1        0.1541
     25 C         142.8012  143.2768  159.7065 C.ar    1  UNL1        0.1258
     26 N         142.6536  144.3139  158.6329 N.ar    1  UNL1       -0.2070
     27 C         141.4560  145.2171  158.6221 C.ar    1  UNL1        0.2469
     28 C         140.4060  145.0831  159.6850 C.ar    1  UNL1        0.1566
     29 N         140.5536  144.0460  160.7585 N.ar    1  UNL1       -0.2328
     30 O         141.3083  146.2542  157.5485 O.3     1  UNL1       -0.4265
     31 C         140.0773  146.2767  156.6917 C.3     1  UNL1        0.4044
     32 F         139.1325  147.4394  156.7666 F       1  UNL1       -0.1809
@<TRIPOS>BOND
     1     9     8    1
     2     9    10    1
     3    10    11    1
     4    11    12    1
     5    11    13    2
     6    13    14    1
     7    14    15    1
     8    14     1    1
     9     1     2   ar
    10     2     3   ar
    11     3    20    1
    12    20    21   am
    13    21    22    2
    14    21    24    1
    15    24    25   ar
    16    25    26   ar
    17    26    27   ar
    18    27    30    1
    19    30    31    1
    20    31    32    1
    21    27    28   ar
    22    28    29   ar
    23     3     4   ar
    24     4     5   ar
    25     5     6   ar
    26     6     7    1
    27    14    16    1
    28    16    17    1
    29    16     9    1
    30     6     1   ar
    31    29    24   ar
    32    12    18    1
    33    12    19    1
    34    20    23    1
@<TRIPOS>MOLECULE
*****
 32 34 0 0 0
SMALL
GASTEIGER

@<TRIPOS>ATOM
      1 C         139.7211  139.3597  164.7105 C.ar    1  UNL1        0.0291
      2 C         140.0238  140.3659  163.6400 C.ar    1  UNL1        0.0145
      3 C         139.6970  140.0594  162.2085 C.ar    1  UNL1        0.0505
      4 C         139.0673  138.7467  161.8474 C.ar    1  UNL1        0.0170
      5 C         138.7646  137.7405  162.9179 C.ar    1  UNL1        0.0306
      6 C         139.0914  138.0470  164.3494 C.ar    1  UNL1        0.1380
      7 F         138.7887  137.0408  165.4198 F       1  UNL1       -0.2044
      8 C         143.8274  138.4568  166.1960 C.3     1  UNL1        0.0150
      9 C         142.5110  139.0143  166.6502 C.3     1  UNL1        0.0893
     10 S         142.3412  139.4774  168.0668 S.3     1  UNL1       -0.0788
     11 C         141.0248  140.0349  168.5209 C.2     1  UNL1        0.1483
     12 N         140.8551  140.4980  169.9376 N.pl3   1  UNL1       -0.3380
     13 N         139.8782  140.1293  167.5586 N.2     1  UNL1       -0.2481
     14 C         140.0479  139.6662  166.1420 C.3     1  UNL1        0.1380
     15 C         138.6180  140.1172  166.0990 C.3     1  UNL1        0.0319
     16 C         141.3643  139.1087  165.6878 C.3     1  UNL1        0.1954
     17 F         141.5340  138.6456  164.2712 F       1  UNL1       -0.2340
     18 H         141.6077  140.4361  170.5692 H       1  UNL1        0.1442
     19 H         139.9911  140.8639  170.2357 H       1  UNL1        0.1442
     20 N         139.9997  141.0656  161.1381 N.am    1  UNL1       -0.2791
     21 C         139.0079  142.1455  160.8217 C.2     1  UNL1        0.2688
     22 O         137.7133  142.2191  161.5758 O.2     1  UNL1       -0.2681
     23 H         140.8494  141.0173  160.6432 H       1  UNL1        0.1552
     24 C         139.3106  143.1518  159.7513 C.ar    1  UNL1        0.1541
     25 C         138.9964  142.8397  158.3181 C.ar    1  UNL1        0.1258
     26 N         139.2990  143.8458  157.2476 N.ar    1  UNL1       -0.2070
     27 C         139.9159  145.1642  157.6103 C.ar    1  UNL1        0.2469
     28 C         140.2301  145.4763  159.0434 C.ar    1  UNL1        0.1566
     29 N         139.9274  144.4701  160.1139 N.ar    1  UNL1       -0.2328
     30 O         140.2186  146.1705  156.5398 O.3     1  UNL1       -0.4265
     31 C         139.1947  147.2022  156.1693 C.3     1  UNL1        0.4044
     32 F         138.6734  148.1488  157.2096 F       1  UNL1       -0.1809
@<TRIPOS>BOND
     1     9     8    1
     2     9    10    1
     3    10    11    1
     4    11    12    1
     5    11    13    2
     6    13    14    1
     7    14    15    1
     8    14     1    1
     9     1     2   ar
    10     2     3   ar
    11     3    20    1
    12    20    21   am
    13    21    22    2
    14    21    24    1
    15    24    25   ar
    16    25    26   ar
    17    26    27   ar
    18    27    30    1
    19    30    31    1
    20    31    32    1
    21    27    28   ar
    22    28    29   ar
    23     3     4   ar
    24     4     5   ar
    25     5     6   ar
    26     6     7    1
    27    14    16    1
    28    16    17    1
    29    16     9    1
    30     6     1   ar
    31    29    24   ar
    32    12    18    1
    33    12    19    1
    34    20    23    1
@<TRIPOS>MOLECULE
*****
 32 34 0 0 0
SMALL
GASTEIGER

@<TRIPOS>ATOM
      1 C         141.9018  142.6741  164.8620 C.ar    1  UNL1        0.0291
      2 C         141.4737  143.3420  163.5890 C.ar    1  UNL1        0.0145
      3 C         142.3918  144.3109  162.9047 C.ar    1  UNL1        0.0505
      4 C         143.7382  144.6119  163.4935 C.ar    1  UNL1        0.0170
      5 C         144.1664  143.9440  164.7665 C.ar    1  UNL1        0.0306
      6 C         143.2483  142.9751  165.4507 C.ar    1  UNL1        0.1380
      7 F         143.6765  142.3072  166.7237 F       1  UNL1       -0.2044
      8 C         142.1149  138.3696  163.7177 C.3     1  UNL1        0.0150
      9 C         141.3841  139.3058  164.6338 C.3     1  UNL1        0.0893
     10 S         140.3229  138.7790  165.5537 S.3     1  UNL1       -0.0788
     11 C         139.5921  139.7152  166.4699 C.2     1  UNL1        0.1483
     12 N         138.5309  139.1883  167.3899 N.pl3   1  UNL1       -0.3380
     13 N         139.9225  141.1783  166.4662 N.2     1  UNL1       -0.2481
     14 C         140.9837  141.7052  165.5463 C.3     1  UNL1        0.1380
     15 C         140.5718  142.9780  166.2247 C.3     1  UNL1        0.0319
     16 C         141.7145  140.7689  164.6301 C.3     1  UNL1        0.1954
     17 F         142.7757  141.2959  163.7102 F       1  UNL1       -0.2340
     18 H         138.3141  138.2280  167.3923 H       1  UNL1        0.1442
     19 H         138.0512  139.8028  167.9912 H       1  UNL1        0.1442
     20 N         141.9636  144.9788  161.6317 N.am    1  UNL1       -0.2791
     21 C         142.0466  144.2367  160.3308 C.2     1  UNL1        0.2688
     22 O         142.5578  142.8268  160.3028 O.2     1  UNL1       -0.2681
     23 H         141.6281  145.9041  161.6501 H       1  UNL1        0.1552
     24 C         141.6183  144.9045  159.0577 C.ar    1  UNL1        0.1541
     25 C         140.2705  145.5569  158.9697 C.ar    1  UNL1        0.1258
     26 N         139.8422  146.2247  157.6967 N.ar    1  UNL1       -0.2070
     27 C         140.7617  146.2402  156.5117 C.ar    1  UNL1        0.2469
     28 C         142.1096  145.5878  156.5998 C.ar    1  UNL1        0.1566
     29 N         142.5379  144.9200  157.8727 N.ar    1  UNL1       -0.2328
     30 O         140.3334  146.9080  155.2386 O.3     1  UNL1       -0.4265
     31 C         138.9403  147.4481  155.1070 C.3     1  UNL1        0.4044
     32 F         138.6594  148.8855  155.4308 F       1  UNL1       -0.1809
@<TRIPOS>BOND
     1     9     8    1
     2     9    10    1
     3    10    11    1
     4    11    12    1
     5    11    13    2
     6    13    14    1
     7    14    15    1
     8    14     1    1
     9     1     2   ar
    10     2     3   ar
    11     3    20    1
    12    20    21   am
    13    21    22    2
    14    21    24    1
    15    24    25   ar
    16    25    26   ar
    17    26    27   ar
    18    27    30    1
    19    30    31    1
    20    31    32    1
    21    27    28   ar
    22    28    29   ar
    23     3     4   ar
    24     4     5   ar
    25     5     6   ar
    26     6     7    1
    27    14    16    1
    28    16    17    1
    29    16     9    1
    30     6     1   ar
    31    29    24   ar
    32    12    18    1
    33    12    19    1
    34    20    23    1
@<TRIPOS>MOLECULE
*****
 32 34 0 0 0
SMALL
GASTEIGER

@<TRIPOS>ATOM
      1 C         142.0063  140.7616  166.4598 C.ar    1  UNL1        0.0291
      2 C         141.5271  141.5365  165.2682 C.ar    1  UNL1        0.0145
      3 C         141.9653  141.1397  163.8897 C.ar    1  UNL1        0.0505
      4 C         142.8829  139.9679  163.7026 C.ar    1  UNL1        0.0170
      5 C         143.3621  139.1929  164.8942 C.ar    1  UNL1        0.0306
      6 C         142.9239  139.5897  166.2728 C.ar    1  UNL1        0.1380
      7 F         143.4031  138.8148  167.4642 F       1  UNL1       -0.2044
      8 C         138.1618  139.1302  168.0226 C.3     1  UNL1        0.0150
      9 C         139.3006  140.0263  168.4102 C.3     1  UNL1        0.0893
     10 S         139.3107  140.6864  169.7570 S.3     1  UNL1       -0.0788
     11 C         140.4494  141.5826  170.1445 C.2     1  UNL1        0.1483
     12 N         140.4595  142.2427  171.4915 N.pl3   1  UNL1       -0.3380
     13 N         141.5781  141.8185  169.1852 N.2     1  UNL1       -0.2481
     14 C         141.5680  141.1584  167.8384 C.3     1  UNL1        0.1380
     15 C         142.8590  141.9167  167.7471 C.3     1  UNL1        0.0319
     16 C         140.4293  140.2623  167.4508 C.3     1  UNL1        0.1954
     17 F         140.4192  139.6021  166.1039 F       1  UNL1       -0.2340
     18 H         139.7186  142.0878  172.1211 H       1  UNL1        0.1442
     19 H         141.2069  142.8309  171.7459 H       1  UNL1        0.1442
     20 N         141.4861  141.9147  162.6982 N.am    1  UNL1       -0.2791
     21 C         142.1169  143.2321  162.3572 C.2     1  UNL1        0.2688
     22 O         143.2271  143.7746  163.2077 O.2     1  UNL1       -0.2681
     23 H         140.7575  141.5586  162.1400 H       1  UNL1        0.1552
     24 C         141.6377  144.0072  161.1657 C.ar    1  UNL1        0.1541
     25 C         140.4004  144.8491  161.2669 C.ar    1  UNL1        0.1258
     26 N         139.9211  145.6242  160.0755 N.ar    1  UNL1       -0.2070
     27 C         140.6791  145.5574  158.7829 C.ar    1  UNL1        0.2469
     28 C         141.9165  144.7155  158.6817 C.ar    1  UNL1        0.1566
     29 N         142.3957  143.9404  159.8731 N.ar    1  UNL1       -0.2328
     30 O         140.1999  146.3325  157.5913 O.3     1  UNL1       -0.4265
     31 C         140.3953  145.7813  156.2101 C.3     1  UNL1        0.4044
     32 F         141.7432  145.8569  155.5561 F       1  UNL1       -0.1809
@<TRIPOS>BOND
     1     9     8    1
     2     9    10    1
     3    10    11    1
     4    11    12    1
     5    11    13    2
     6    13    14    1
     7    14    15    1
     8    14     1    1
     9     1     2   ar
    10     2     3   ar
    11     3    20    1
    12    20    21   am
    13    21    22    2
    14    21    24    1
    15    24    25   ar
    16    25    26   ar
    17    26    27   ar
    18    27    30    1
    19    30    31    1
    20    31    32    1
    21    27    28   ar
    22    28    29   ar
    23     3     4   ar
    24     4     5   ar
    25     5     6   ar
    26     6     7    1
    27    14    16    1
    28    16    17    1
    29    16     9    1
    30     6     1   ar
    31    29    24   ar
    32    12    18    1
    33    12    19    1
    34    20    23    1
@<TRIPOS>MOLECULE
*****
 32 34 0 0 0
SMALL
GASTEIGER

@<TRIPOS>ATOM
      1 C         139.3915  142.0164  164.1695 C.ar    1  UNL1        0.0291
      2 C         140.0567  141.2801  163.0446 C.ar    1  UNL1        0.0145
      3 C         139.5423  141.4279  161.6434 C.ar    1  UNL1        0.0505
      4 C         138.3625  142.3121  161.3670 C.ar    1  UNL1        0.0170
      5 C         137.6973  143.0484  162.4918 C.ar    1  UNL1        0.0306
      6 C         138.2117  142.9006  163.8931 C.ar    1  UNL1        0.1380
      7 F         137.5465  143.6369  165.0178 F       1  UNL1       -0.2044
      8 C         137.8975  138.6161  166.6373 C.3     1  UNL1        0.0150
      9 C         138.8252  139.7932  166.6997 C.3     1  UNL1        0.0893
     10 S         139.5998  140.0720  167.9536 S.3     1  UNL1       -0.0788
     11 C         140.5274  141.2491  168.0161 C.2     1  UNL1        0.1483
     12 N         141.3020  141.5278  169.2700 N.pl3   1  UNL1       -0.3380
     13 N         140.6805  142.1474  166.8246 N.2     1  UNL1       -0.2481
     14 C         139.9060  141.8686  165.5707 C.3     1  UNL1        0.1380
     15 C         140.6549  143.0970  165.1465 C.3     1  UNL1        0.0319
     16 C         138.9783  140.6915  165.5083 C.3     1  UNL1        0.1954
     17 F         138.2037  140.4127  164.2543 F       1  UNL1       -0.2340
     18 H         141.2015  140.9382  170.0520 H       1  UNL1        0.1442
     19 H         141.9109  142.3004  169.3110 H       1  UNL1        0.1442
     20 N         140.2075  140.6915  160.5186 N.am    1  UNL1       -0.2791
     21 C         139.7384  139.3180  160.1402 C.2     1  UNL1        0.2688
     22 O         138.6040  138.6807  160.8866 O.2     1  UNL1       -0.2681
     23 H         140.9520  141.1098  160.0287 H       1  UNL1        0.1552
     24 C         140.4036  138.5815  159.0154 C.ar    1  UNL1        0.1541
     25 C         141.8772  138.3058  159.0673 C.ar    1  UNL1        0.1258
     26 N         142.5424  137.5694  157.9426 N.ar    1  UNL1       -0.2070
     27 C         141.7342  137.1087  156.7659 C.ar    1  UNL1        0.2469
     28 C         140.2607  137.3845  156.7140 C.ar    1  UNL1        0.1566
     29 N         139.5954  138.1209  157.8387 N.ar    1  UNL1       -0.2328
     30 O         142.3995  136.3722  155.6411 O.3     1  UNL1       -0.4265
     31 C         143.8810  136.1391  155.6699 C.3     1  UNL1        0.4044
     32 F         144.8220  137.2472  155.3002 F       1  UNL1       -0.1809
@<TRIPOS>BOND
     1     9     8    1
     2     9    10    1
     3    10    11    1
     4    11    12    1
     5    11    13    2
     6    13    14    1
     7    14    15    1
     8    14     1    1
     9     1     2   ar
    10     2     3   ar
    11     3    20    1
    12    20    21   am
    13    21    22    2
    14    21    24    1
    15    24    25   ar
    16    25    26   ar
    17    26    27   ar
    18    27    30    1
    19    30    31    1
    20    31    32    1
    21    27    28   ar
    22    28    29   ar
    23     3     4   ar
    24     4     5   ar
    25     5     6   ar
    26     6     7    1
    27    14    16    1
    28    16    17    1
    29    16     9    1
    30     6     1   ar
    31    29    24   ar
    32    12    18    1
    33    12    19    1
    34    20    23    1
@<TRIPOS>MOLECULE
*****
 32 34 0 0 0
SMALL
GASTEIGER

@<TRIPOS>ATOM
      1 C         141.0327  140.3139  166.5910 C.ar    1  UNL1        0.0291
      2 C         141.7392  140.7686  165.3484 C.ar    1  UNL1        0.0145
      3 C         140.9800  140.9076  164.0622 C.ar    1  UNL1        0.0505
      4 C         139.5142  140.5919  164.0186 C.ar    1  UNL1        0.0170
      5 C         138.8077  140.1373  165.2613 C.ar    1  UNL1        0.0306
      6 C         139.5669  139.9983  166.5474 C.ar    1  UNL1        0.1380
      7 F         138.8603  139.5436  167.7900 F       1  UNL1       -0.2044
      8 C         140.6045  143.5100  169.6709 C.3     1  UNL1        0.0150
      9 C         141.3038  142.2067  169.4211 C.3     1  UNL1        0.0893
     10 S         142.2142  141.6318  170.4654 S.3     1  UNL1       -0.0788
     11 C         142.9135  140.3285  170.2156 C.2     1  UNL1        0.1483
     12 N         143.8240  139.7536  171.2600 N.pl3   1  UNL1       -0.3380
     13 N         142.7023  139.6000  168.9215 N.2     1  UNL1       -0.2481
     14 C         141.7919  140.1749  167.8772 C.3     1  UNL1        0.1380
     15 C         142.2275  138.9199  167.1806 C.3     1  UNL1        0.0319
     16 C         141.0926  141.4782  168.1270 C.3     1  UNL1        0.1954
     17 F         140.1821  142.0531  167.0827 F       1  UNL1       -0.2340
     18 H         143.9626  140.2317  172.1093 H       1  UNL1        0.1442
     19 H         144.2830  138.8982  171.0960 H       1  UNL1        0.1442
     20 N         141.6865  141.3622  162.8196 N.am    1  UNL1       -0.2791
     21 C         142.3444  140.3576  161.9208 C.2     1  UNL1        0.2688
     22 O         142.2957  138.8983  162.2646 O.2     1  UNL1       -0.2681
     23 H         141.7185  142.3200  162.5940 H       1  UNL1        0.1552
     24 C         143.0510  140.8122  160.6782 C.ar    1  UNL1        0.1541
     25 C         143.5173  139.8046  159.6694 C.ar    1  UNL1        0.1258
     26 N         144.2239  140.2591  158.4268 N.ar    1  UNL1       -0.2070
     27 C         144.4642  141.7211  158.1929 C.ar    1  UNL1        0.2469
     28 C         143.9979  142.7286  159.2016 C.ar    1  UNL1        0.1566
     29 N         143.2914  142.2742  160.4442 N.ar    1  UNL1       -0.2328
     30 O         145.1709  142.1756  156.9502 O.3     1  UNL1       -0.4265
     31 C         146.0012  141.2061  156.1625 C.3     1  UNL1        0.4044
     32 F         145.3374  140.2247  155.2425 F       1  UNL1       -0.1809
@<TRIPOS>BOND
     1     9     8    1
     2     9    10    1
     3    10    11    1
     4    11    12    1
     5    11    13    2
     6    13    14    1
     7    14    15    1
     8    14     1    1
     9     1     2   ar
    10     2     3   ar
    11     3    20    1
    12    20    21   am
    13    21    22    2
    14    21    24    1
    15    24    25   ar
    16    25    26   ar
    17    26    27   ar
    18    27    30    1
    19    30    31    1
    20    31    32    1
    21    27    28   ar
    22    28    29   ar
    23     3     4   ar
    24     4     5   ar
    25     5     6   ar
    26     6     7    1
    27    14    16    1
    28    16    17    1
    29    16     9    1
    30     6     1   ar
    31    29    24   ar
    32    12    18    1
    33    12    19    1
    34    20    23    1
@<TRIPOS>MOLECULE
*****
 32 34 0 0 0
SMALL
GASTEIGER

@<TRIPOS>ATOM
      1 C         140.8509  142.5244  164.6225 C.ar    1  UNL1        0.0291
      2 C         140.8199  142.9214  163.1763 C.ar    1  UNL1        0.0145
      3 C         140.0167  144.1114  162.7422 C.ar    1  UNL1        0.0505
      4 C         139.2443  144.9046  163.7543 C.ar    1  UNL1        0.0170
      5 C         139.2753  144.5077  165.2005 C.ar    1  UNL1        0.0306
      6 C         140.0786  143.3176  165.6346 C.ar    1  UNL1        0.1380
      7 F         140.1095  142.9207  167.0808 F       1  UNL1       -0.2044
      8 C         138.9818  138.4845  164.3592 C.3     1  UNL1        0.0150
      9 C         140.2555  139.1643  164.7660 C.3     1  UNL1        0.0893
     10 S         141.4042  138.3539  165.2890 S.3     1  UNL1       -0.0788
     11 C         142.6779  139.0337  165.6959 C.2     1  UNL1        0.1483
     12 N         143.8267  138.2232  166.2189 N.pl3   1  UNL1       -0.3380
     13 N         142.8029  140.5239  165.5796 N.2     1  UNL1       -0.2481
     14 C         141.6542  141.3343  165.0566 C.3     1  UNL1        0.1380
     15 C         142.6489  142.4275  165.3126 C.3     1  UNL1        0.0319
     16 C         140.3805  140.6545  164.6498 C.3     1  UNL1        0.1954
     17 F         139.2317  141.4650  164.1267 F       1  UNL1       -0.2340
     18 H         143.7446  137.2451  166.2952 H       1  UNL1        0.1442
     19 H         144.6627  138.6694  166.4859 H       1  UNL1        0.1442
     20 N         139.9857  144.5083  161.2960 N.am    1  UNL1       -0.2791
     21 C         141.2663  144.7949  160.5694 C.2     1  UNL1        0.2688
     22 O         142.5778  144.6847  161.2890 O.2     1  UNL1       -0.2681
     23 H         139.1249  144.5806  160.8237 H       1  UNL1        0.1552
     24 C         141.2354  145.1918  159.1232 C.ar    1  UNL1        0.1541
     25 C         140.0508  145.9294  158.5730 C.ar    1  UNL1        0.1258
     26 N         140.0199  146.3263  157.1268 N.ar    1  UNL1       -0.2070
     27 C         141.1735  145.9857  156.2308 C.ar    1  UNL1        0.2469
     28 C         142.3582  145.2481  156.7809 C.ar    1  UNL1        0.1566
     29 N         142.3891  144.8512  158.2271 N.ar    1  UNL1       -0.2328
     30 O         141.1427  146.3826  154.7845 O.3     1  UNL1       -0.4265
     31 C         140.0961  147.3371  154.2910 C.3     1  UNL1        0.4044
     32 F         140.4875  148.7155  153.8473 F       1  UNL1       -0.1809
@<TRIPOS>BOND
     1     9     8    1
     2     9    10    1
     3    10    11    1
     4    11    12    1
     5    11    13    2
     6    13    14    1
     7    14    15    1
     8    14     1    1
     9     1     2   ar
    10     2     3   ar
    11     3    20    1
    12    20    21   am
    13    21    22    2
    14    21    24    1
    15    24    25   ar
    16    25    26   ar
    17    26    27   ar
    18    27    30    1
    19    30    31    1
    20    31    32    1
    21    27    28   ar
    22    28    29   ar
    23     3     4   ar
    24     4     5   ar
    25     5     6   ar
    26     6     7    1
    27    14    16    1
    28    16    17    1
    29    16     9    1
    30     6     1   ar
    31    29    24   ar
    32    12    18    1
    33    12    19    1
    34    20    23    1
@<TRIPOS>MOLECULE
*****
 32 34 0 0 0
SMALL
GASTEIGER

@<TRIPOS>ATOM
      1 C         140.0226  142.2501  163.6824 C.ar    1  UNL1        0.0291
      2 C         139.9688  142.7404  162.2658 C.ar    1  UNL1        0.0145
      3 C         139.6528  144.1789  161.9814 C.ar    1  UNL1        0.0505
      4 C         139.3906  145.1272  163.1137 C.ar    1  UNL1        0.0170
      5 C         139.4444  144.6369  164.5302 C.ar    1  UNL1        0.0306
      6 C         139.7604  143.1984  164.8146 C.ar    1  UNL1        0.1380
      7 F         139.8141  142.7082  166.2312 F       1  UNL1       -0.2044
      8 C         144.2820  141.0916  164.3137 C.3     1  UNL1        0.0150
      9 C         142.9002  140.5092  164.2772 C.3     1  UNL1        0.0893
     10 S         142.6982  139.0420  164.5146 S.3     1  UNL1       -0.0788
     11 C         141.3163  138.4596  164.4781 C.2     1  UNL1        0.1483
     12 N         141.1143  136.9923  164.7155 N.pl3   1  UNL1       -0.3380
     13 N         140.1365  139.3444  164.2042 N.2     1  UNL1       -0.2481
     14 C         140.3386  140.8116  163.9668 C.3     1  UNL1        0.1380
     15 C         138.8470  140.7289  163.8314 C.3     1  UNL1        0.0319
     16 C         141.7204  141.3940  164.0033 C.3     1  UNL1        0.1954
     17 F         141.9224  142.8613  163.7659 F       1  UNL1       -0.2340
     18 H         141.8887  136.4115  164.8953 H       1  UNL1        0.1442
     19 H         140.2074  136.6100  164.6915 H       1  UNL1        0.1442
     20 N         139.5990  144.6690  160.5648 N.am    1  UNL1       -0.2791
     21 C         140.8702  144.9500  159.8196 C.2     1  UNL1        0.2688
     22 O         142.1951  144.7408  160.4911 O.2     1  UNL1       -0.2681
     23 H         138.7295  144.8064  160.1241 H       1  UNL1        0.1552
     24 C         140.8165  145.4402  158.4030 C.ar    1  UNL1        0.1541
     25 C         141.9093  145.0769  157.4418 C.ar    1  UNL1        0.1258
     26 N         141.8557  145.5671  156.0252 N.ar    1  UNL1       -0.2070
     27 C         140.7093  146.4205  155.5697 C.ar    1  UNL1        0.2469
     28 C         139.6165  146.7838  156.5309 C.ar    1  UNL1        0.1566
     29 N         139.6701  146.2937  157.9475 N.ar    1  UNL1       -0.2328
     30 O         140.6557  146.9107  154.1530 O.3     1  UNL1       -0.4265
     31 C         140.3525  148.3520  153.8692 C.3     1  UNL1        0.4044
     32 F         139.1182  148.9853  154.4400 F       1  UNL1       -0.1809
@<TRIPOS>BOND
     1     9     8    1
     2     9    10    1
     3    10    11    1
     4    11    12    1
     5    11    13    2
     6    13    14    1
     7    14    15    1
     8    14     1    1
     9     1     2   ar
    10     2     3   ar
    11     3    20    1
    12    20    21   am
    13    21    22    2
    14    21    24    1
    15    24    25   ar
    16    25    26   ar
    17    26    27   ar
    18    27    30    1
    19    30    31    1
    20    31    32    1
    21    27    28   ar
    22    28    29   ar
    23     3     4   ar
    24     4     5   ar
    25     5     6   ar
    26     6     7    1
    27    14    16    1
    28    16    17    1
    29    16     9    1
    30     6     1   ar
    31    29    24   ar
    32    12    18    1
    33    12    19    1
    34    20    23    1
