@<TRIPOS>MOLECULE
*****
 22 24 0 0 0
SMALL
GASTEIGER

@<TRIPOS>ATOM
      1 C         140.6271  140.7196  167.3264 C.3     1  UNL1        0.0489
      2 C         141.1833  140.1256  168.5864 C.3     1  UNL1        0.0236
      3 C         141.4467  139.5675  169.9536 C.3     1  UNL1        0.0690
      4 N         140.1635  139.6149  170.7289 N.3     1  UNL1       -0.2974
      5 C         139.1069  140.2024  169.8410 C.3     1  UNL1        0.0690
      6 C         139.7371  140.5180  168.5169 C.3     1  UNL1        0.0236
      7 H         140.2815  140.1969  171.5583 H       1  UNL1        0.1232
      8 C         141.8588  140.7142  166.4702 C.ar    1  UNL1       -0.0195
      9 C         142.3774  139.4229  165.9103 C.ar    1  UNL1       -0.0033
     10 C         143.6091  139.4176  165.0543 C.ar    1  UNL1        0.0119
     11 C         144.3222  140.7036  164.7581 C.ar    1  UNL1        0.0682
     12 CL        145.5539  140.6982  163.9020 Cl      1  UNL1       -0.0814
     13 C         143.8036  141.9949  165.3180 C.ar    1  UNL1        0.0679
     14 CL        144.5167  143.2809  165.0218 Cl      1  UNL1       -0.0814
     15 C         142.5719  142.0002  166.1741 C.ar    1  UNL1        0.0080
     16 C         139.6432  141.3155  166.3635 C.3     1  UNL1        0.1465
     17 O         138.4968  140.4916  165.8567 O.3     1  UNL1       -0.3453
     18 C         138.7356  139.0923  165.3716 C.3     1  UNL1        0.2458
     19 F         137.5964  136.7655  166.8843 F       1  UNL1       -0.1674
     20 C         138.1660  137.9289  166.1280 C.3     1  UNL1        0.4248
     21 F         137.3095  138.8670  166.9256 F       1  UNL1       -0.1674
     22 F         139.0226  136.9909  165.3302 F       1  UNL1       -0.1674
@<TRIPOS>BOND
     1    19    20    1
     2    20    21    1
     3    20    22    1
     4    20    18    1
     5    18    17    1
     6    17    16    1
     7     1    16    1
     8     1     8    1
     9     8     9   ar
    10     9    10   ar
    11    10    11   ar
    12    11    12    1
    13    11    13   ar
    14    13    14    1
    15    13    15   ar
    16     1     2    1
    17     2     3    1
    18     3     4    1
    19     4     5    1
    20     6     5    1
    21     6     1    1
    22    15     8   ar
    23     6     2    1
    24     4     7    1
@<TRIPOS>MOLECULE
*****
 22 24 0 0 0
SMALL
GASTEIGER

@<TRIPOS>ATOM
      1 C         140.5784  141.0783  167.5285 C.3     1  UNL1        0.0489
      2 C         140.3696  141.9933  168.6986 C.3     1  UNL1        0.0236
      3 C         140.1034  142.6421  170.0246 C.3     1  UNL1        0.0690
      4 N         139.7853  141.5608  171.0143 N.3     1  UNL1       -0.2974
      5 C         139.8548  140.2436  170.3000 C.3     1  UNL1        0.0690
      6 C         140.2160  140.5109  168.8689 C.3     1  UNL1        0.0236
      7 H         138.8478  141.7012  171.3910 H       1  UNL1        0.1232
      8 C         140.9080  142.0850  166.4664 C.ar    1  UNL1       -0.0195
      9 C         142.3020  142.1685  165.9189 C.ar    1  UNL1       -0.0033
     10 C         142.6316  143.1751  164.8569 C.ar    1  UNL1        0.0119
     11 C         141.5672  144.0983  164.3423 C.ar    1  UNL1        0.0682
     12 CL        141.8969  145.1050  163.2802 Cl      1  UNL1       -0.0814
     13 C         140.1732  144.0148  164.8898 C.ar    1  UNL1        0.0679
     14 CL        139.1088  144.9380  164.3752 Cl      1  UNL1       -0.0814
     15 C         139.8436  143.0082  165.9518 C.ar    1  UNL1        0.0080
     16 C         140.6727  139.8138  166.7271 C.3     1  UNL1        0.1465
     17 O         139.7889  139.6160  165.5314 O.3     1  UNL1       -0.3453
     18 C         138.3367  139.2896  165.7179 C.3     1  UNL1        0.2458
     19 F         137.5355  136.7455  167.0911 F       1  UNL1       -0.1674
     20 C         137.9361  138.0176  166.4045 C.3     1  UNL1        0.4248
     21 F         137.4149  138.8093  167.5670 F       1  UNL1       -0.1674
     22 F         138.4573  137.2259  165.2419 F       1  UNL1       -0.1674
@<TRIPOS>BOND
     1    19    20    1
     2    20    21    1
     3    20    22    1
     4    20    18    1
     5    18    17    1
     6    17    16    1
     7     1    16    1
     8     1     8    1
     9     8     9   ar
    10     9    10   ar
    11    10    11   ar
    12    11    12    1
    13    11    13   ar
    14    13    14    1
    15    13    15   ar
    16     1     2    1
    17     2     3    1
    18     3     4    1
    19     4     5    1
    20     6     5    1
    21     6     1    1
    22    15     8   ar
    23     6     2    1
    24     4     7    1
@<TRIPOS>MOLECULE
*****
 22 24 0 0 0
SMALL
GASTEIGER

@<TRIPOS>ATOM
      1 C         140.6927  141.6941  167.6403 C.3     1  UNL1        0.0489
      2 C         140.5765  142.8060  168.6404 C.3     1  UNL1        0.0236
      3 C         140.3426  143.6943  169.8262 C.3     1  UNL1        0.0690
      4 N         139.7554  142.8573  170.9238 N.3     1  UNL1       -0.2974
      5 C         139.6264  141.4517  170.4163 C.3     1  UNL1        0.0690
      6 C         140.1338  141.4200  169.0051 C.3     1  UNL1        0.0236
      7 H         138.8366  143.2183  171.1806 H       1  UNL1        0.1232
      8 C         141.2823  142.4450  166.4833 C.ar    1  UNL1       -0.0195
      9 C         140.4133  143.3364  165.6466 C.ar    1  UNL1       -0.0033
     10 C         141.0030  144.0872  164.4897 C.ar    1  UNL1        0.0119
     11 C         142.4617  143.9466  164.1695 C.ar    1  UNL1        0.0682
     12 CL        143.0513  144.6975  163.0125 Cl      1  UNL1       -0.0814
     13 C         143.3307  143.0552  165.0062 C.ar    1  UNL1        0.0679
     14 CL        144.7893  142.9146  164.6860 Cl      1  UNL1       -0.0814
     15 C         142.7410  142.3044  166.1631 C.ar    1  UNL1        0.0080
     16 C         140.6041  140.3214  167.0421 C.3     1  UNL1        0.1465
     17 O         139.7746  140.0907  165.8138 O.3     1  UNL1       -0.3453
     18 C         138.3432  139.6619  165.9451 C.3     1  UNL1        0.2458
     19 F         137.6887  136.8545  166.7760 F       1  UNL1       -0.1674
     20 C         138.0160  138.2582  166.3606 C.3     1  UNL1        0.4248
     21 F         138.6221  137.7408  165.0898 F       1  UNL1       -0.1674
     22 F         137.4098  138.7757  167.6313 F       1  UNL1       -0.1674
@<TRIPOS>BOND
     1    19    20    1
     2    20    21    1
     3    20    22    1
     4    20    18    1
     5    18    17    1
     6    17    16    1
     7     1    16    1
     8     1     8    1
     9     8     9   ar
    10     9    10   ar
    11    10    11   ar
    12    11    12    1
    13    11    13   ar
    14    13    14    1
    15    13    15   ar
    16     1     2    1
    17     2     3    1
    18     3     4    1
    19     4     5    1
    20     6     5    1
    21     6     1    1
    22    15     8   ar
    23     6     2    1
    24     4     7    1
@<TRIPOS>MOLECULE
*****
 22 24 0 0 0
SMALL
GASTEIGER

@<TRIPOS>ATOM
      1 C         141.4959  140.2792  167.8362 C.3     1  UNL1        0.0489
      2 C         142.1211  140.8469  169.0759 C.3     1  UNL1        0.0236
      3 C         142.5040  141.2778  170.4607 C.3     1  UNL1        0.0690
      4 N         141.4767  140.7424  171.4136 N.3     1  UNL1       -0.2974
      5 C         140.4588  139.9806  170.6177 C.3     1  UNL1        0.0690
      6 C         140.8570  140.0452  169.1730 C.3     1  UNL1        0.0236
      7 H         141.0252  141.5137  171.9051 H       1  UNL1        0.1232
      8 C         142.4694  140.7697  166.8057 C.ar    1  UNL1       -0.0195
      9 C         142.8197  142.2266  166.7382 C.ar    1  UNL1       -0.0033
     10 C         143.7932  142.7169  165.7077 C.ar    1  UNL1        0.0119
     11 C         144.4163  141.7503  164.7447 C.ar    1  UNL1        0.0682
     12 CL        145.3898  142.2407  163.7142 Cl      1  UNL1       -0.0814
     13 C         144.0660  140.2934  164.8122 C.ar    1  UNL1        0.0679
     14 CL        144.6892  139.3268  163.8492 Cl      1  UNL1       -0.0814
     15 C         143.0926  139.8031  165.8427 C.ar    1  UNL1        0.0080
     16 C         140.5327  139.5413  166.9543 C.3     1  UNL1        0.1465
     17 O         139.3339  140.2490  166.3957 O.3     1  UNL1       -0.3453
     18 C         138.1697  139.4577  165.8775 C.3     1  UNL1        0.2458
     19 F         137.6207  136.7139  166.9592 F       1  UNL1       -0.1674
     20 C         137.8952  138.0858  166.4184 C.3     1  UNL1        0.4248
     21 F         137.3022  138.6923  167.6555 F       1  UNL1       -0.1674
     22 F         138.4883  137.4794  165.1812 F       1  UNL1       -0.1674
@<TRIPOS>BOND
     1    19    20    1
     2    20    21    1
     3    20    22    1
     4    20    18    1
     5    18    17    1
     6    17    16    1
     7     1    16    1
     8     1     8    1
     9     8     9   ar
    10     9    10   ar
    11    10    11   ar
    12    11    12    1
    13    11    13   ar
    14    13    14    1
    15    13    15   ar
    16     1     2    1
    17     2     3    1
    18     3     4    1
    19     4     5    1
    20     6     5    1
    21     6     1    1
    22    15     8   ar
    23     6     2    1
    24     4     7    1
@<TRIPOS>MOLECULE
*****
 22 24 0 0 0
SMALL
GASTEIGER

@<TRIPOS>ATOM
      1 C         141.3375  142.4670  164.3172 C.3     1  UNL1        0.0489
      2 C         142.4380  142.4938  165.3360 C.3     1  UNL1        0.0236
      3 C         143.6719  142.7244  166.1572 C.3     1  UNL1        0.0690
      4 N         144.5397  143.7045  165.4248 N.3     1  UNL1       -0.2974
      5 C         143.8421  144.0797  164.1510 C.3     1  UNL1        0.0690
      6 C         142.5432  143.3315  164.0961 C.3     1  UNL1        0.0236
      7 H         145.4415  143.2775  165.2128 H       1  UNL1        0.1232
      8 C         140.4010  141.4945  164.9710 C.ar    1  UNL1       -0.0195
      9 C         139.3565  140.7939  164.1536 C.ar    1  UNL1       -0.0033
     10 C         138.4201  139.8215  164.8074 C.ar    1  UNL1        0.0119
     11 C         138.5282  139.5497  166.2786 C.ar    1  UNL1        0.0682
     12 CL        137.5917  138.5772  166.9324 Cl      1  UNL1       -0.0814
     13 C         139.5727  140.2503  167.0960 C.ar    1  UNL1        0.0679
     14 CL        139.6807  139.9785  168.5672 Cl      1  UNL1       -0.0814
     15 C         140.5091  141.2227  166.4422 C.ar    1  UNL1        0.0080
     16 C         140.5621  142.7779  163.0713 C.3     1  UNL1        0.1465
     17 O         140.4320  144.1971  162.6035 O.3     1  UNL1       -0.3453
     18 C         139.2188  144.9995  162.9702 C.3     1  UNL1        0.2458
     19 F         137.3439  144.0006  165.0884 F       1  UNL1       -0.1674
     20 C         138.2813  144.5001  164.0293 C.3     1  UNL1        0.4248
     21 F         139.1746  145.0724  165.0897 F       1  UNL1       -0.1674
     22 F         137.3882  143.9278  162.9688 F       1  UNL1       -0.1674
@<TRIPOS>BOND
     1    19    20    1
     2    20    21    1
     3    20    22    1
     4    20    18    1
     5    18    17    1
     6    17    16    1
     7     1    16    1
     8     1     8    1
     9     8     9   ar
    10     9    10   ar
    11    10    11   ar
    12    11    12    1
    13    11    13   ar
    14    13    14    1
    15    13    15   ar
    16     1     2    1
    17     2     3    1
    18     3     4    1
    19     4     5    1
    20     6     5    1
    21     6     1    1
    22    15     8   ar
    23     6     2    1
    24     4     7    1
@<TRIPOS>MOLECULE
*****
 22 24 0 0 0
SMALL
GASTEIGER

@<TRIPOS>ATOM
      1 C         142.6127  142.4381  164.5865 C.3     1  UNL1        0.0489
      2 C         143.1125  143.8453  164.4455 C.3     1  UNL1        0.0236
      3 C         143.6647  145.1691  164.0067 C.3     1  UNL1        0.0690
      4 N         144.0201  145.0644  162.5532 N.3     1  UNL1       -0.2974
      5 C         143.6875  143.6758  162.0936 C.3     1  UNL1        0.0690
      6 C         143.1266  142.9224  163.2631 C.3     1  UNL1        0.0236
      7 H         145.0167  145.2414  162.4269 H       1  UNL1        0.1232
      8 C         142.2257  142.4432  166.0358 C.ar    1  UNL1       -0.0195
      9 C         140.7797  142.5264  166.4257 C.ar    1  UNL1       -0.0033
     10 C         140.3928  142.5315  167.8749 C.ar    1  UNL1        0.0119
     11 C         141.4519  142.4533  168.9342 C.ar    1  UNL1        0.0682
     12 CL        141.0650  142.4584  170.3835 Cl      1  UNL1       -0.0814
     13 C         142.8979  142.3701  168.5443 C.ar    1  UNL1        0.0679
     14 CL        143.9571  142.2919  169.6036 Cl      1  UNL1       -0.0814
     15 C         143.2848  142.3650  167.0951 C.ar    1  UNL1        0.0080
     16 C         142.2472  141.0291  164.2243 C.3     1  UNL1        0.1465
     17 O         143.1735  139.9013  164.5709 O.3     1  UNL1       -0.3453
     18 C         142.6778  138.7499  165.3948 C.3     1  UNL1        0.2458
     19 F         143.0156  138.7833  168.3755 F       1  UNL1       -0.1674
     20 C         142.8467  138.7666  166.8852 C.3     1  UNL1        0.4248
     21 F         144.1926  138.1205  166.7398 F       1  UNL1       -0.1674
     22 F         141.5008  139.4127  167.0304 F       1  UNL1       -0.1674
@<TRIPOS>BOND
     1    19    20    1
     2    20    21    1
     3    20    22    1
     4    20    18    1
     5    18    17    1
     6    17    16    1
     7     1    16    1
     8     1     8    1
     9     8     9   ar
    10     9    10   ar
    11    10    11   ar
    12    11    12    1
    13    11    13   ar
    14    13    14    1
    15    13    15   ar
    16     1     2    1
    17     2     3    1
    18     3     4    1
    19     4     5    1
    20     6     5    1
    21     6     1    1
    22    15     8   ar
    23     6     2    1
    24     4     7    1
@<TRIPOS>MOLECULE
*****
 22 24 0 0 0
SMALL
GASTEIGER

@<TRIPOS>ATOM
      1 C         139.7896  139.4156  165.1530 C.3     1  UNL1        0.0489
      2 C         140.7078  138.2734  164.8333 C.3     1  UNL1        0.0236
      3 C         141.4832  137.1377  164.2344 C.3     1  UNL1        0.0690
      4 N         140.9921  136.9295  162.8324 N.3     1  UNL1       -0.2974
      5 C         139.9132  137.9366  162.5648 C.3     1  UNL1        0.0690
      6 C         139.7375  138.7672  163.8014 C.3     1  UNL1        0.0236
      7 H         140.6172  135.9860  162.7334 H       1  UNL1        0.1232
      8 C         140.2115  139.7019  166.5638 C.ar    1  UNL1       -0.0195
      9 C         141.6685  139.8068  166.9042 C.ar    1  UNL1       -0.0033
     10 C         142.0903  140.0930  168.3149 C.ar    1  UNL1        0.0119
     11 C         141.0551  140.2743  169.3851 C.ar    1  UNL1        0.0682
     12 CL        141.4770  140.5605  170.7959 Cl      1  UNL1       -0.0814
     13 C         139.5980  140.1694  169.0447 C.ar    1  UNL1        0.0679
     14 CL        138.5628  140.3507  170.1149 Cl      1  UNL1       -0.0814
     15 C         139.1762  139.8832  167.6340 C.ar    1  UNL1        0.0080
     16 C         138.7248  140.4585  164.9828 C.3     1  UNL1        0.1465
     17 O         138.9534  141.6204  164.0622 O.3     1  UNL1       -0.3453
     18 C         139.8373  142.7541  164.4905 C.3     1  UNL1        0.2458
     19 F         138.7057  145.0062  166.1176 F       1  UNL1       -0.1674
     20 C         139.2715  143.8802  165.3041 C.3     1  UNL1        0.4248
     21 F         139.8677  143.2835  166.5444 F       1  UNL1       -0.1674
     22 F         138.6754  144.4768  164.0637 F       1  UNL1       -0.1674
@<TRIPOS>BOND
     1    19    20    1
     2    20    21    1
     3    20    22    1
     4    20    18    1
     5    18    17    1
     6    17    16    1
     7     1    16    1
     8     1     8    1
     9     8     9   ar
    10     9    10   ar
    11    10    11   ar
    12    11    12    1
    13    11    13   ar
    14    13    14    1
    15    13    15   ar
    16     1     2    1
    17     2     3    1
    18     3     4    1
    19     4     5    1
    20     6     5    1
    21     6     1    1
    22    15     8   ar
    23     6     2    1
    24     4     7    1
@<TRIPOS>MOLECULE
*****
 22 24 0 0 0
SMALL
GASTEIGER

@<TRIPOS>ATOM
      1 C         140.8200  140.6603  167.5623 C.3     1  UNL1        0.0489
      2 C         139.8209  140.6063  168.6799 C.3     1  UNL1        0.0236
      3 C         139.0577  140.4216  169.9580 C.3     1  UNL1        0.0690
      4 N         139.9764  139.7857  170.9588 N.3     1  UNL1       -0.2974
      5 C         141.3074  139.5773  170.2994 C.3     1  UNL1        0.0690
      6 C         141.2114  140.0844  168.8910 C.3     1  UNL1        0.0236
      7 H         139.5943  138.8887  171.2584 H       1  UNL1        0.1232
      8 C         139.9803  141.2938  166.4929 C.ar    1  UNL1       -0.0195
      9 C         139.0443  140.4521  165.6772 C.ar    1  UNL1       -0.0033
     10 C         138.2047  141.0856  164.6078 C.ar    1  UNL1        0.0119
     11 C         138.3011  142.5609  164.3541 C.ar    1  UNL1        0.0682
     12 CL        137.4614  143.1944  163.2847 Cl      1  UNL1       -0.0814
     13 C         139.2370  143.4026  165.1698 C.ar    1  UNL1        0.0679
     14 CL        139.3334  144.8778  164.9162 Cl      1  UNL1       -0.0814
     15 C         140.0766  142.7690  166.2392 C.ar    1  UNL1        0.0080
     16 C         142.1106  140.4943  166.8161 C.3     1  UNL1        0.1465
     17 O         143.0694  141.6430  166.7113 O.3     1  UNL1       -0.3453
     18 C         143.6150  142.0449  165.3731 C.3     1  UNL1        0.2458
     19 F         143.8475  144.9493  164.6588 F       1  UNL1       -0.1674
     20 C         143.7313  143.4971  165.0159 C.3     1  UNL1        0.4248
     21 F         144.8922  143.6352  165.9557 F       1  UNL1       -0.1674
     22 F         142.5703  143.3589  164.0762 F       1  UNL1       -0.1674
@<TRIPOS>BOND
     1    19    20    1
     2    20    21    1
     3    20    22    1
     4    20    18    1
     5    18    17    1
     6    17    16    1
     7     1    16    1
     8     1     8    1
     9     8     9   ar
    10     9    10   ar
    11    10    11   ar
    12    11    12    1
    13    11    13   ar
    14    13    14    1
    15    13    15   ar
    16     1     2    1
    17     2     3    1
    18     3     4    1
    19     4     5    1
    20     6     5    1
    21     6     1    1
    22    15     8   ar
    23     6     2    1
    24     4     7    1
@<TRIPOS>MOLECULE
*****
 22 24 0 0 0
SMALL
GASTEIGER

@<TRIPOS>ATOM
      1 C         138.9550  140.3923  165.8467 C.3     1  UNL1        0.0489
      2 C         139.3759  141.7568  165.3876 C.3     1  UNL1        0.0236
      3 C         139.5646  143.0869  164.7203 C.3     1  UNL1        0.0690
      4 N         138.5424  143.2073  163.6291 N.3     1  UNL1       -0.2974
      5 C         137.7219  141.9516  163.6220 C.3     1  UNL1        0.0690
      6 C         138.2370  141.0552  164.7087 C.3     1  UNL1        0.0236
      7 H         139.0086  143.3212  162.7291 H       1  UNL1        0.1232
      8 C         139.9377  140.1773  166.9595 C.ar    1  UNL1       -0.0195
      9 C         141.3929  139.9878  166.6488 C.ar    1  UNL1       -0.0033
     10 C         142.3755  139.7729  167.7615 C.ar    1  UNL1        0.0119
     11 C         141.9030  139.7475  169.1849 C.ar    1  UNL1        0.0682
     12 CL        142.8857  139.5326  170.2977 Cl      1  UNL1       -0.0814
     13 C         140.4478  139.9371  169.4956 C.ar    1  UNL1        0.0679
     14 CL        139.9753  139.9117  170.9190 Cl      1  UNL1       -0.0814
     15 C         139.4652  140.1520  168.3829 C.ar    1  UNL1        0.0080
     16 C         138.1928  139.1023  165.9195 C.3     1  UNL1        0.1465
     17 O         138.8633  137.8131  165.5476 O.3     1  UNL1       -0.3453
     18 C         139.4573  137.6437  164.1806 C.3     1  UNL1        0.2458
     19 F         142.4138  137.9580  163.7803 F       1  UNL1       -0.1674
     20 C         140.9355  137.8008  163.9805 C.3     1  UNL1        0.4248
     21 F         141.1686  136.4916  164.6745 F       1  UNL1       -0.1674
     22 F         140.7024  139.1100  163.2865 F       1  UNL1       -0.1674
@<TRIPOS>BOND
     1    19    20    1
     2    20    21    1
     3    20    22    1
     4    20    18    1
     5    18    17    1
     6    17    16    1
     7     1    16    1
     8     1     8    1
     9     8     9   ar
    10     9    10   ar
    11    10    11   ar
    12    11    12    1
    13    11    13   ar
    14    13    14    1
    15    13    15   ar
    16     1     2    1
    17     2     3    1
    18     3     4    1
    19     4     5    1
    20     6     5    1
    21     6     1    1
    22    15     8   ar
    23     6     2    1
    24     4     7    1
