@<TRIPOS>MOLECULE
*****
 27 29 0 0 0
SMALL
GASTEIGER

@<TRIPOS>ATOM
      1 C         139.1448  138.5489  164.1881 C.ar    1  UNL1        0.1390
      2 C         138.3513  138.9361  165.4008 C.ar    1  UNL1        0.0366
      3 C         139.0541  139.4292  166.6309 C.ar    1  UNL1        0.0001
      4 C         140.5503  139.5353  166.6482 C.ar    1  UNL1       -0.0078
      5 C         141.3437  139.1482  165.4355 C.ar    1  UNL1        0.0001
      6 C         140.6409  138.6550  164.2055 C.ar    1  UNL1        0.0366
      7 C         141.2530  140.0284  167.8782 C.3     1  UNL1        0.0772
      8 C         142.5625  139.5236  168.4077 C.3     1  UNL1        0.0221
      9 C         142.8884  140.2962  169.6514 C.3     1  UNL1        0.0268
     10 C         141.7803  141.2785  169.8906 C.3     1  UNL1        0.1315
     11 N         140.7695  141.1131  168.7947 N.3     1  UNL1       -0.2890
     12 H         140.6741  141.9868  168.2770 H       1  UNL1        0.1239
     13 C         141.6975  142.2549  171.0263 C.2     1  UNL1        0.2336
     14 N         142.7751  143.2816  171.2128 N.am    1  UNL1       -0.3277
     15 O         140.5371  142.2046  171.9755 O.2     1  UNL1       -0.2739
     16 H         143.5367  143.3146  170.5899 H       1  UNL1        0.1450
     17 H         142.7207  143.9225  171.9582 H       1  UNL1        0.1450
     18 O         138.4421  138.0558  162.9581 O.3     1  UNL1       -0.4706
     19 C         137.7863  139.0318  162.0268 C.3     1  UNL1        0.2320
     20 C         139.0542  143.3494  162.0349 C.ar    1  UNL1        0.0684
     21 C         139.8588  142.3329  161.2806 C.ar    1  UNL1        0.0101
     22 C         139.4362  140.8937  161.2779 C.ar    1  UNL1       -0.0000
     23 C         138.2089  140.4710  162.0295 C.ar    1  UNL1        0.0212
     24 C         137.4043  141.4875  162.7839 C.ar    1  UNL1       -0.0000
     25 C         137.8269  142.9268  162.7866 C.ar    1  UNL1        0.0101
     26 N         139.8994  146.2279  162.0404 N.1     1  UNL1       -0.1908
     27 C         139.4768  144.7887  162.0377 C.1     1  UNL1        0.1004
@<TRIPOS>BOND
     1    26    27    3
     2    27    20    1
     3    20    21   ar
     4    21    22   ar
     5    22    23   ar
     6    23    19    1
     7    19    18    1
     8    18     1    1
     9     1     2   ar
    10     2     3   ar
    11     3     4   ar
    12     7     4    1
    13     7     8    1
    14     8     9    1
    15     9    10    1
    16    10    13    1
    17    13    14   am
    18    13    15    2
    19    10    11    1
    20     4     5   ar
    21     5     6   ar
    22    23    24   ar
    23    24    25   ar
    24    25    20   ar
    25     6     1   ar
    26    11     7    1
    27    14    16    1
    28    14    17    1
    29    11    12    1
@<TRIPOS>MOLECULE
*****
 27 29 0 0 0
SMALL
GASTEIGER

@<TRIPOS>ATOM
      1 C         139.1609  138.5390  164.1665 C.ar    1  UNL1        0.1390
      2 C         138.3593  138.9727  165.3579 C.ar    1  UNL1        0.0366
      3 C         139.0562  139.4617  166.5929 C.ar    1  UNL1        0.0001
      4 C         140.5546  139.5170  166.6365 C.ar    1  UNL1       -0.0078
      5 C         141.3561  139.0833  165.4450 C.ar    1  UNL1        0.0001
      6 C         140.6592  138.5943  164.2100 C.ar    1  UNL1        0.0366
      7 C         141.2515  140.0061  167.8715 C.3     1  UNL1        0.0772
      8 C         142.5478  139.4849  168.4172 C.3     1  UNL1        0.0221
      9 C         142.8719  140.2589  169.6606 C.3     1  UNL1        0.0268
     10 C         141.7758  141.2583  169.8833 C.3     1  UNL1        0.1315
     11 N         140.7743  141.1022  168.7776 N.3     1  UNL1       -0.2890
     12 H         140.6970  141.9745  168.2547 H       1  UNL1        0.1239
     13 C         141.6953  142.2415  171.0134 C.2     1  UNL1        0.2336
     14 N         142.7739  143.2684  171.1924 N.am    1  UNL1       -0.3277
     15 O         140.5361  142.1977  171.9644 O.2     1  UNL1       -0.2739
     16 H         143.5347  143.2971  170.5683 H       1  UNL1        0.1450
     17 H         142.7210  143.9136  171.9341 H       1  UNL1        0.1450
     18 O         138.4640  138.0500  162.9314 O.3     1  UNL1       -0.4706
     19 C         137.8083  139.0287  162.0030 C.3     1  UNL1        0.2320
     20 C         139.0870  143.3432  162.0129 C.ar    1  UNL1        0.0684
     21 C         137.8514  142.9254  162.7536 C.ar    1  UNL1        0.0101
     22 C         137.4252  141.4873  162.7503 C.ar    1  UNL1       -0.0000
     23 C         138.2346  140.4669  162.0063 C.ar    1  UNL1        0.0212
     24 C         139.4702  140.8846  161.2656 C.ar    1  UNL1       -0.0000
     25 C         139.8964  142.3228  161.2689 C.ar    1  UNL1        0.0101
     26 N         139.9395  146.2195  162.0195 N.1     1  UNL1       -0.1908
     27 C         139.5133  144.7813  162.0162 C.1     1  UNL1        0.1004
@<TRIPOS>BOND
     1    26    27    3
     2    27    20    1
     3    20    21   ar
     4    21    22   ar
     5    22    23   ar
     6    23    19    1
     7    19    18    1
     8    18     1    1
     9     1     2   ar
    10     2     3   ar
    11     3     4   ar
    12     7     4    1
    13     7     8    1
    14     8     9    1
    15     9    10    1
    16    10    13    1
    17    13    14   am
    18    13    15    2
    19    10    11    1
    20     4     5   ar
    21     5     6   ar
    22    23    24   ar
    23    24    25   ar
    24    25    20   ar
    25     6     1   ar
    26    11     7    1
    27    14    16    1
    28    14    17    1
    29    11    12    1
@<TRIPOS>MOLECULE
*****
 27 29 0 0 0
SMALL
GASTEIGER

@<TRIPOS>ATOM
      1 C         139.4914  138.2233  163.8378 C.ar    1  UNL1        0.1390
      2 C         140.9302  138.1668  164.2583 C.ar    1  UNL1        0.0366
      3 C         141.3628  138.8145  165.5402 C.ar    1  UNL1        0.0001
      4 C         140.3567  139.5188  166.4016 C.ar    1  UNL1       -0.0078
      5 C         138.9180  139.5753  165.9810 C.ar    1  UNL1        0.0001
      6 C         138.4854  138.9276  164.6991 C.ar    1  UNL1        0.0366
      7 C         140.7894  140.1665  167.6834 C.3     1  UNL1        0.0772
      8 C         142.0510  139.8705  168.4389 C.3     1  UNL1        0.0221
      9 C         142.0778  140.7450  169.6573 C.3     1  UNL1        0.0268
     10 C         140.8327  141.5816  169.6548 C.3     1  UNL1        0.1315
     11 N         140.0364  141.2241  168.4349 N.3     1  UNL1       -0.2890
     12 H         139.9166  142.0483  167.8460 H       1  UNL1        0.1239
     13 C         140.4509  142.5974  170.6904 C.2     1  UNL1        0.2336
     14 N         140.0638  143.9851  170.2729 N.am    1  UNL1       -0.3277
     15 O         140.4562  142.2254  172.1435 O.2     1  UNL1       -0.2739
     16 H         140.0604  144.2293  169.3192 H       1  UNL1        0.1450
     17 H         139.8132  144.6518  170.9526 H       1  UNL1        0.1450
     18 O         139.0587  137.5756  162.5559 O.3     1  UNL1       -0.4706
     19 C         139.1706  138.3254  161.2616 C.3     1  UNL1        0.2320
     20 C         139.4759  142.8150  161.2814 C.ar    1  UNL1        0.0684
     21 C         138.1342  142.1540  161.3950 C.ar    1  UNL1        0.0101
     22 C         138.0324  140.6575  161.3884 C.ar    1  UNL1       -0.0000
     23 C         139.2723  139.8220  161.2682 C.ar    1  UNL1        0.0212
     24 C         140.6140  140.4830  161.1546 C.ar    1  UNL1       -0.0000
     25 C         140.7158  141.9795  161.1612 C.ar    1  UNL1        0.0101
     26 N         139.6794  145.8081  161.2946 N.1     1  UNL1       -0.1908
     27 C         139.5776  144.3115  161.2880 C.1     1  UNL1        0.1004
@<TRIPOS>BOND
     1    26    27    3
     2    27    20    1
     3    20    21   ar
     4    21    22   ar
     5    22    23   ar
     6    23    19    1
     7    19    18    1
     8    18     1    1
     9     1     2   ar
    10     2     3   ar
    11     3     4   ar
    12     7     4    1
    13     7     8    1
    14     8     9    1
    15     9    10    1
    16    10    13    1
    17    13    14   am
    18    13    15    2
    19    10    11    1
    20     4     5   ar
    21     5     6   ar
    22    23    24   ar
    23    24    25   ar
    24    25    20   ar
    25     6     1   ar
    26    11     7    1
    27    14    16    1
    28    14    17    1
    29    11    12    1
@<TRIPOS>MOLECULE
*****
 27 29 0 0 0
SMALL
GASTEIGER

@<TRIPOS>ATOM
      1 C         138.5386  139.0874  163.6947 C.ar    1  UNL1        0.1390
      2 C         138.2084  140.5313  163.9319 C.ar    1  UNL1        0.0366
      3 C         138.7276  141.2283  165.1544 C.ar    1  UNL1        0.0001
      4 C         139.5771  140.4814  166.1397 C.ar    1  UNL1       -0.0078
      5 C         139.9072  139.0376  165.9024 C.ar    1  UNL1        0.0001
      6 C         139.3880  138.3406  164.6799 C.ar    1  UNL1        0.0366
      7 C         140.0963  141.1785  167.3622 C.3     1  UNL1        0.0772
      8 C         140.4797  142.6256  167.4561 C.3     1  UNL1        0.0221
      9 C         140.9437  142.8923  168.8574 C.3     1  UNL1        0.0268
     10 C         140.8470  141.6100  169.6296 C.3     1  UNL1        0.1315
     11 N         140.3233  140.5507  168.7055 N.3     1  UNL1       -0.2890
     12 H         139.4447  140.1795  169.0671 H       1  UNL1        0.1239
     13 C         141.2102  141.4201  171.0725 C.2     1  UNL1        0.2336
     14 N         142.3231  140.4877  171.4493 N.am    1  UNL1       -0.3277
     15 O         140.4605  142.1627  172.1385 O.2     1  UNL1       -0.2739
     16 H         142.8152  140.0003  170.7496 H       1  UNL1        0.1450
     17 H         142.5615  140.3631  172.3964 H       1  UNL1        0.1450
     18 O         138.0193  138.3903  162.4722 O.3     1  UNL1       -0.4706
     19 C         138.9153  138.1890  161.2861 C.3     1  UNL1        0.2320
     20 C         142.5114  140.8319  160.7085 C.ar    1  UNL1        0.0684
     21 C         142.6793  139.4466  161.2587 C.ar    1  UNL1        0.0101
     22 C         141.4806  138.5657  161.4513 C.ar    1  UNL1       -0.0000
     23 C         140.1140  139.0700  161.0936 C.ar    1  UNL1        0.0212
     24 C         139.9461  140.4552  160.5434 C.ar    1  UNL1       -0.0000
     25 C         141.1447  141.3362  160.3508 C.ar    1  UNL1        0.0101
     26 N         144.9087  142.5938  160.3234 N.1     1  UNL1       -0.1908
     27 C         143.7100  141.7129  160.5160 C.1     1  UNL1        0.1004
@<TRIPOS>BOND
     1    26    27    3
     2    27    20    1
     3    20    21   ar
     4    21    22   ar
     5    22    23   ar
     6    23    19    1
     7    19    18    1
     8    18     1    1
     9     1     2   ar
    10     2     3   ar
    11     3     4   ar
    12     7     4    1
    13     7     8    1
    14     8     9    1
    15     9    10    1
    16    10    13    1
    17    13    14   am
    18    13    15    2
    19    10    11    1
    20     4     5   ar
    21     5     6   ar
    22    23    24   ar
    23    24    25   ar
    24    25    20   ar
    25     6     1   ar
    26    11     7    1
    27    14    16    1
    28    14    17    1
    29    11    12    1
@<TRIPOS>MOLECULE
*****
 27 29 0 0 0
SMALL
GASTEIGER

@<TRIPOS>ATOM
      1 C         144.7742  141.5754  163.9560 C.ar    1  UNL1        0.1390
      2 C         144.4794  142.7939  164.7798 C.ar    1  UNL1        0.0366
      3 C         143.5945  142.6874  165.9863 C.ar    1  UNL1        0.0001
      4 C         143.0043  141.3625  166.3689 C.ar    1  UNL1       -0.0078
      5 C         143.2991  140.1441  165.5452 C.ar    1  UNL1        0.0001
      6 C         144.1841  140.2506  164.3387 C.ar    1  UNL1        0.0366
      7 C         142.1193  141.2560  167.5754 C.3     1  UNL1        0.0772
      8 C         141.3321  140.0476  167.9875 C.3     1  UNL1        0.0221
      9 C         140.5925  140.3840  169.2484 C.3     1  UNL1        0.0268
     10 C         140.9226  141.8004  169.6155 C.3     1  UNL1        0.1315
     11 N         141.8663  142.3394  168.5816 N.3     1  UNL1       -0.2890
     12 H         142.7439  142.6135  169.0233 H       1  UNL1        0.1239
     13 C         140.4007  142.5469  170.8073 C.2     1  UNL1        0.2336
     14 N         139.6766  143.8471  170.6199 N.am    1  UNL1       -0.3277
     15 O         140.6029  141.9931  172.1866 O.2     1  UNL1       -0.2739
     16 H         139.5439  144.2106  169.7146 H       1  UNL1        0.1450
     17 H         139.3341  144.3370  171.4022 H       1  UNL1        0.1450
     18 O         145.6592  141.6819  162.7496 O.3     1  UNL1       -0.4706
     19 C         145.0916  142.1487  161.4420 C.3     1  UNL1        0.2320
     20 C         140.6434  142.6345  160.9651 C.ar    1  UNL1        0.0684
     21 C         141.2733  141.2844  160.7913 C.ar    1  UNL1        0.0101
     22 C         142.7561  141.1224  160.9503 C.ar    1  UNL1       -0.0000
     23 C         143.6089  142.3107  161.2830 C.ar    1  UNL1        0.0212
     24 C         142.9790  143.6608  161.4567 C.ar    1  UNL1       -0.0000
     25 C         141.4962  143.8228  161.2978 C.ar    1  UNL1        0.0101
     26 N         137.6779  142.9584  160.6471 N.1     1  UNL1       -0.1908
     27 C         139.1607  142.7965  160.8061 C.1     1  UNL1        0.1004
@<TRIPOS>BOND
     1    26    27    3
     2    27    20    1
     3    20    21   ar
     4    21    22   ar
     5    22    23   ar
     6    23    19    1
     7    19    18    1
     8    18     1    1
     9     1     2   ar
    10     2     3   ar
    11     3     4   ar
    12     7     4    1
    13     7     8    1
    14     8     9    1
    15     9    10    1
    16    10    13    1
    17    13    14   am
    18    13    15    2
    19    10    11    1
    20     4     5   ar
    21     5     6   ar
    22    23    24   ar
    23    24    25   ar
    24    25    20   ar
    25     6     1   ar
    26    11     7    1
    27    14    16    1
    28    14    17    1
    29    11    12    1
@<TRIPOS>MOLECULE
*****
 27 29 0 0 0
SMALL
GASTEIGER

@<TRIPOS>ATOM
      1 C         143.3498  139.2867  163.9899 C.ar    1  UNL1        0.1390
      2 C         143.7973  140.4628  164.8064 C.ar    1  UNL1        0.0366
      3 C         143.0077  140.8840  166.0103 C.ar    1  UNL1        0.0001
      4 C         141.7707  140.1290  166.3976 C.ar    1  UNL1       -0.0078
      5 C         141.3234  138.9529  165.5811 C.ar    1  UNL1        0.0001
      6 C         142.1129  138.5318  164.3773 C.ar    1  UNL1        0.0366
      7 C         140.9812  140.5502  167.6014 C.3     1  UNL1        0.0772
      8 C         139.7404  139.8849  168.1190 C.3     1  UNL1        0.0221
      9 C         139.2861  140.6341  169.3365 C.3     1  UNL1        0.0268
     10 C         140.2461  141.7625  169.5714 C.3     1  UNL1        0.1315
     11 N         141.2938  141.7106  168.4991 N.3     1  UNL1       -0.2890
     12 H         142.2142  141.5844  168.9202 H       1  UNL1        0.1239
     13 C         140.1717  142.7664  170.6834 C.2     1  UNL1        0.2336
     14 N         140.0265  144.2257  170.3679 N.am    1  UNL1       -0.3277
     15 O         140.2424  142.3111  172.1109 O.2     1  UNL1       -0.2739
     16 H         139.9801  144.5245  169.4310 H       1  UNL1        0.1450
     17 H         139.9777  144.8846  171.0978 H       1  UNL1        0.1450
     18 O         144.1394  138.8655  162.7861 O.3     1  UNL1       -0.4706
     19 C         144.1810  139.7444  161.5714 C.3     1  UNL1        0.2320
     20 C         141.4274  143.2903  161.2644 C.ar    1  UNL1        0.0684
     21 C         142.8929  143.4977  161.5079 C.ar    1  UNL1        0.0101
     22 C         143.8108  142.3157  161.6102 C.ar    1  UNL1       -0.0000
     23 C         143.2631  140.9264  161.4691 C.ar    1  UNL1        0.0212
     24 C         141.7976  140.7191  161.2256 C.ar    1  UNL1       -0.0000
     25 C         140.8798  141.9011  161.1233 C.ar    1  UNL1        0.0101
     26 N         139.5917  145.6543  161.0598 N.1     1  UNL1       -0.1908
     27 C         140.5095  144.4723  161.1621 C.1     1  UNL1        0.1004
@<TRIPOS>BOND
     1    26    27    3
     2    27    20    1
     3    20    21   ar
     4    21    22   ar
     5    22    23   ar
     6    23    19    1
     7    19    18    1
     8    18     1    1
     9     1     2   ar
    10     2     3   ar
    11     3     4   ar
    12     7     4    1
    13     7     8    1
    14     8     9    1
    15     9    10    1
    16    10    13    1
    17    13    14   am
    18    13    15    2
    19    10    11    1
    20     4     5   ar
    21     5     6   ar
    22    23    24   ar
    23    24    25   ar
    24    25    20   ar
    25     6     1   ar
    26    11     7    1
    27    14    16    1
    28    14    17    1
    29    11    12    1
@<TRIPOS>MOLECULE
*****
 27 29 0 0 0
SMALL
GASTEIGER

@<TRIPOS>ATOM
      1 C         144.5767  141.3735  164.0412 C.ar    1  UNL1        0.1390
      2 C         144.1043  139.9709  164.2854 C.ar    1  UNL1        0.0366
      3 C         143.0964  139.6957  165.3617 C.ar    1  UNL1        0.0001
      4 C         142.5608  140.8231  166.1937 C.ar    1  UNL1       -0.0078
      5 C         143.0332  142.2256  165.9494 C.ar    1  UNL1        0.0001
      6 C         144.0412  142.5008  164.8732 C.ar    1  UNL1        0.0366
      7 C         141.5529  140.5479  167.2700 C.3     1  UNL1        0.0772
      8 C         140.1281  140.1298  167.0576 C.3     1  UNL1        0.0221
      9 C         139.4874  139.9660  168.4039 C.3     1  UNL1        0.0268
     10 C         140.5163  140.2829  169.4485 C.3     1  UNL1        0.1315
     11 N         141.7928  140.6426  168.7477 N.3     1  UNL1       -0.2890
     12 H         142.5319  139.9948  169.0206 H       1  UNL1        0.1239
     13 C         140.3056  140.2466  170.9332 C.2     1  UNL1        0.2336
     14 N         139.6318  139.0655  171.5664 N.am    1  UNL1       -0.3277
     15 O         140.7687  141.3914  171.7846 O.2     1  UNL1       -0.2739
     16 H         139.3279  138.3141  171.0076 H       1  UNL1        0.1450
     17 H         139.4935  139.0417  172.5409 H       1  UNL1        0.1450
     18 O         145.5846  141.6487  162.9649 O.3     1  UNL1       -0.4706
     19 C         145.1319  142.1333  161.6195 C.3     1  UNL1        0.2320
     20 C         141.3141  140.5614  159.8296 C.ar    1  UNL1        0.0684
     21 C         141.3883  141.9801  160.3109 C.ar    1  UNL1        0.0101
     22 C         142.6609  142.5041  160.9076 C.ar    1  UNL1       -0.0000
     23 C         143.8593  141.6093  161.0229 C.ar    1  UNL1        0.0212
     24 C         143.7850  140.1906  160.5415 C.ar    1  UNL1       -0.0000
     25 C         142.5124  139.6667  159.9449 C.ar    1  UNL1        0.0101
     26 N         138.7689  139.5135  158.6363 N.1     1  UNL1       -0.1908
     27 C         140.0415  140.0375  159.2329 C.1     1  UNL1        0.1004
@<TRIPOS>BOND
     1    26    27    3
     2    27    20    1
     3    20    21   ar
     4    21    22   ar
     5    22    23   ar
     6    23    19    1
     7    19    18    1
     8    18     1    1
     9     1     2   ar
    10     2     3   ar
    11     3     4   ar
    12     7     4    1
    13     7     8    1
    14     8     9    1
    15     9    10    1
    16    10    13    1
    17    13    14   am
    18    13    15    2
    19    10    11    1
    20     4     5   ar
    21     5     6   ar
    22    23    24   ar
    23    24    25   ar
    24    25    20   ar
    25     6     1   ar
    26    11     7    1
    27    14    16    1
    28    14    17    1
    29    11    12    1
@<TRIPOS>MOLECULE
*****
 27 29 0 0 0
SMALL
GASTEIGER

@<TRIPOS>ATOM
      1 C         142.6168  138.4631  163.4419 C.ar    1  UNL1        0.1390
      2 C         143.6665  139.4112  163.9413 C.ar    1  UNL1        0.0366
      3 C         143.5077  140.0685  165.2802 C.ar    1  UNL1        0.0001
      4 C         142.2991  139.7776  166.1198 C.ar    1  UNL1       -0.0078
      5 C         141.2495  138.8296  165.6205 C.ar    1  UNL1        0.0001
      6 C         141.4083  138.1723  164.2815 C.ar    1  UNL1        0.0366
      7 C         142.1402  140.4349  167.4588 C.3     1  UNL1        0.0772
      8 C         142.8722  141.6546  167.9346 C.3     1  UNL1        0.0221
      9 C         142.4059  141.9614  169.3269 C.3     1  UNL1        0.0268
     10 C         141.3857  140.9312  169.7116 C.3     1  UNL1        0.1315
     11 N         141.2215  139.9877  168.5571 N.3     1  UNL1       -0.2890
     12 H         140.2557  140.0063  168.2295 H       1  UNL1        0.1239
     13 C         140.6576  140.8573  171.0209 C.2     1  UNL1        0.2336
     14 N         139.9568  139.5923  171.4191 N.am    1  UNL1       -0.3277
     15 O         140.6302  142.0486  171.9321 O.2     1  UNL1       -0.2739
     16 H         139.9747  138.8104  170.8211 H       1  UNL1        0.1450
     17 H         139.4788  139.5438  172.2785 H       1  UNL1        0.1450
     18 O         142.7756  137.8059  162.1030 O.3     1  UNL1       -0.4706
     19 C         142.1890  138.4451  160.8794 C.3     1  UNL1        0.2320
     20 C         140.6184  142.6576  161.0748 C.ar    1  UNL1        0.0684
     21 C         139.6908  141.5002  161.2981 C.ar    1  UNL1        0.0101
     22 C         140.2143  140.0960  161.2330 C.ar    1  UNL1       -0.0000
     23 C         141.6654  139.8493  160.9445 C.ar    1  UNL1        0.0212
     24 C         142.5930  141.0067  160.7212 C.ar    1  UNL1       -0.0000
     25 C         142.0695  142.4108  160.7863 C.ar    1  UNL1        0.0101
     26 N         139.5713  145.4659  161.2050 N.1     1  UNL1       -0.1908
     27 C         140.0948  144.0617  161.1399 C.1     1  UNL1        0.1004
@<TRIPOS>BOND
     1    26    27    3
     2    27    20    1
     3    20    21   ar
     4    21    22   ar
     5    22    23   ar
     6    23    19    1
     7    19    18    1
     8    18     1    1
     9     1     2   ar
    10     2     3   ar
    11     3     4   ar
    12     7     4    1
    13     7     8    1
    14     8     9    1
    15     9    10    1
    16    10    13    1
    17    13    14   am
    18    13    15    2
    19    10    11    1
    20     4     5   ar
    21     5     6   ar
    22    23    24   ar
    23    24    25   ar
    24    25    20   ar
    25     6     1   ar
    26    11     7    1
    27    14    16    1
    28    14    17    1
    29    11    12    1
@<TRIPOS>MOLECULE
*****
 27 29 0 0 0
SMALL
GASTEIGER

@<TRIPOS>ATOM
      1 C         144.4752  140.7907  163.7253 C.ar    1  UNL1        0.1390
      2 C         144.0387  139.4294  164.1798 C.ar    1  UNL1        0.0366
      3 C         143.3844  139.2598  165.5188 C.ar    1  UNL1        0.0001
      4 C         143.1665  140.4515  166.4034 C.ar    1  UNL1       -0.0078
      5 C         143.6030  141.8127  165.9490 C.ar    1  UNL1        0.0001
      6 C         144.2573  141.9823  164.6099 C.ar    1  UNL1        0.0366
      7 C         142.5122  140.2819  167.7425 C.3     1  UNL1        0.0772
      8 C         142.7267  139.1393  168.6903 C.3     1  UNL1        0.0221
      9 C         141.8756  139.3764  169.9024 C.3     1  UNL1        0.0268
     10 C         141.1349  140.6656  169.7038 C.3     1  UNL1        0.1315
     11 N         141.5284  141.2253  168.3689 N.3     1  UNL1       -0.2890
     12 H         141.9577  142.1424  168.4910 H       1  UNL1        0.1239
     13 C         140.1703  141.2862  170.6704 C.2     1  UNL1        0.2336
     14 N         138.6931  141.1508  170.4469 N.am    1  UNL1       -0.3277
     15 O         140.6827  142.0421  171.8603 O.2     1  UNL1       -0.2739
     16 H         138.3568  140.6547  169.6659 H       1  UNL1        0.1450
     17 H         138.0600  141.5582  171.0813 H       1  UNL1        0.1450
     18 O         145.1295  140.9603  162.3862 O.3     1  UNL1       -0.4706
     19 C         144.3541  141.5400  161.2406 C.3     1  UNL1        0.2320
     20 C         140.3925  143.5393  161.9878 C.ar    1  UNL1        0.0684
     21 C         141.6456  144.3606  161.9174 C.ar    1  UNL1        0.0101
     22 C         142.9661  143.6942  161.6683 C.ar    1  UNL1       -0.0000
     23 C         143.0336  142.2064  161.4897 C.ar    1  UNL1        0.0212
     24 C         141.7804  141.3851  161.5601 C.ar    1  UNL1       -0.0000
     25 C         140.4599  142.0515  161.8092 C.ar    1  UNL1        0.0101
     26 N         137.7514  144.8721  162.4860 N.1     1  UNL1       -0.1908
     27 C         139.0719  144.2057  162.2369 C.1     1  UNL1        0.1004
@<TRIPOS>BOND
     1    26    27    3
     2    27    20    1
     3    20    21   ar
     4    21    22   ar
     5    22    23   ar
     6    23    19    1
     7    19    18    1
     8    18     1    1
     9     1     2   ar
    10     2     3   ar
    11     3     4   ar
    12     7     4    1
    13     7     8    1
    14     8     9    1
    15     9    10    1
    16    10    13    1
    17    13    14   am
    18    13    15    2
    19    10    11    1
    20     4     5   ar
    21     5     6   ar
    22    23    24   ar
    23    24    25   ar
    24    25    20   ar
    25     6     1   ar
    26    11     7    1
    27    14    16    1
    28    14    17    1
    29    11    12    1
