@<TRIPOS>MOLECULE
*****
 45 47 0 0 0
SMALL
GASTEIGER

@<TRIPOS>ATOM
      1 C         141.0147  141.2673  165.7964 C.3     1  UNL1        0.0988
      2 C         140.0568  140.1417  166.0526 C.ar    1  UNL1       -0.0020
      3 C         139.1446  140.1892  167.2424 C.ar    1  UNL1       -0.0001
      4 C         138.1868  139.0637  167.4985 C.ar    1  UNL1        0.0294
      5 C         138.1413  137.8905  166.5650 C.ar    1  UNL1        0.1401
      6 F         137.1834  136.7649  166.8211 F       1  UNL1       -0.2042
      7 C         139.0535  137.8430  165.3752 C.ar    1  UNL1        0.0294
      8 C         140.0113  138.9685  165.1190 C.ar    1  UNL1       -0.0001
      9 C         141.6679  141.0132  167.1225 C.ar    1  UNL1        0.0000
     10 C         141.9720  139.6085  167.5519 C.ar    1  UNL1        0.0272
     11 C         142.6253  139.3544  168.8780 C.ar    1  UNL1        0.1398
     12 F         142.9293  137.9496  169.3074 F       1  UNL1       -0.2042
     13 C         142.9745  140.5049  169.7748 C.ar    1  UNL1        0.0335
     14 C         142.6705  141.9096  169.3454 C.ar    1  UNL1        0.0734
     15 C         142.0172  142.1638  168.0193 C.ar    1  UNL1        0.0016
     16 C         143.0197  143.0602  170.2423 C.3     1  UNL1        0.4186
     17 F         143.3690  144.2107  171.1391 F       1  UNL1       -0.1659
     18 F         141.5840  143.4949  170.2437 F       1  UNL1       -0.1659
     19 F         144.4553  142.6255  170.2408 F       1  UNL1       -0.1659
     20 C         139.2161  142.4851  164.3708 C.2     1  UNL1        0.2401
     21 O         138.8289  142.9413  164.8975 O.2     1  UNL1       -0.2736
     22 N         140.3614  141.5215  164.4703 N.am    1  UNL1       -0.2991
     23 H         140.6843  141.0559  163.6652 H       1  UNL1        0.1500
     24 C         138.5628  142.7392  163.0447 C.3     1  UNL1        0.1731
     25 C         137.6210  140.3441  162.6893 C.3     1  UNL1        0.0863
     26 N         137.4720  141.8311  162.5597 N.3     1  UNL1       -0.2878
     27 H         136.6267  142.0878  163.0695 H       1  UNL1        0.1238
     28 C         139.0004  143.9016  162.2035 C.3     1  UNL1        0.2851
     29 O         137.7010  144.5955  162.4864 O.3     1  UNL1       -0.3715
     30 H         137.1541  144.0365  163.0602 H       1  UNL1        0.2109
     31 C         139.4380  145.0639  161.3624 C.3     1  UNL1        0.4292
     32 F         139.8755  146.2262  160.5213 F       1  UNL1       -0.1672
     33 F         139.2347  145.9847  162.5290 F       1  UNL1       -0.1672
     34 F         139.6931  144.2917  160.1020 F       1  UNL1       -0.1672
     35 C         140.2998  143.2077  161.9206 C.3     1  UNL1        0.4292
     36 F         141.5993  142.5138  161.6377 F       1  UNL1       -0.1672
     37 F         141.1926  144.2137  162.5844 F       1  UNL1       -0.1672
     38 F         139.8963  141.9736  161.1694 F       1  UNL1       -0.1672
     39 C         141.9725  142.3929  165.5403 C.3     1  UNL1        0.0528
     40 C         143.1770  142.1704  164.6744 C.ar    1  UNL1       -0.0199
     41 C         143.7702  143.3141  163.9064 C.ar    1  UNL1       -0.0042
     42 C         144.9747  143.0916  163.0406 C.ar    1  UNL1       -0.0003
     43 C         145.5860  141.7253  162.9429 C.ar    1  UNL1       -0.0000
     44 C         144.9929  140.5816  163.7110 C.ar    1  UNL1       -0.0003
     45 C         143.7884  140.8041  164.5767 C.ar    1  UNL1       -0.0042
@<TRIPOS>BOND
     1    25    26    1
     2    26    24    1
     3    24    20    1
     4    20    21    2
     5    20    22   am
     6    22     1    1
     7     1    39    1
     8    39    40    1
     9    40    41   ar
    10    41    42   ar
    11    42    43   ar
    12    43    44   ar
    13    44    45   ar
    14     1     2    1
    15     2     3   ar
    16     3     4   ar
    17     4     5   ar
    18     5     6    1
    19     5     7   ar
    20     7     8   ar
    21     1     9    1
    22     9    10   ar
    23    10    11   ar
    24    11    12    1
    25    11    13   ar
    26    13    14   ar
    27    14    16    1
    28    16    17    1
    29    16    18    1
    30    16    19    1
    31    14    15   ar
    32    24    28    1
    33    28    29    1
    34    28    31    1
    35    31    32    1
    36    31    33    1
    37    31    34    1
    38    28    35    1
    39    35    36    1
    40    35    37    1
    41    35    38    1
    42    45    40   ar
    43     8     2   ar
    44    15     9   ar
    45    26    27    1
    46    22    23    1
    47    29    30    1
@<TRIPOS>MOLECULE
*****
 45 47 0 0 0
SMALL
GASTEIGER

@<TRIPOS>ATOM
      1 C         141.2214  141.1495  165.8204 C.3     1  UNL1        0.0988
      2 C         142.5919  141.3022  165.2301 C.ar    1  UNL1       -0.0020
      3 C         143.2468  140.1400  164.5443 C.ar    1  UNL1       -0.0001
      4 C         144.6173  140.2926  163.9540 C.ar    1  UNL1        0.0294
      5 C         145.3328  141.6075  164.0496 C.ar    1  UNL1        0.1401
      6 F         146.7034  141.7602  163.4593 F       1  UNL1       -0.2042
      7 C         144.6779  142.7696  164.7354 C.ar    1  UNL1        0.0294
      8 C         143.3075  142.6170  165.3257 C.ar    1  UNL1       -0.0001
      9 C         141.8285  140.9421  167.1763 C.ar    1  UNL1        0.0000
     10 C         142.0934  139.5524  167.6748 C.ar    1  UNL1        0.0272
     11 C         142.7006  139.3450  169.0307 C.ar    1  UNL1        0.1398
     12 F         142.9656  137.9553  169.5292 F       1  UNL1       -0.2042
     13 C         143.0428  140.5273  169.8880 C.ar    1  UNL1        0.0335
     14 C         142.7778  141.9170  169.3895 C.ar    1  UNL1        0.0734
     15 C         142.1707  142.1244  168.0337 C.ar    1  UNL1        0.0016
     16 C         143.1200  143.0994  170.2469 C.3     1  UNL1        0.4186
     17 F         143.4622  144.2816  171.1042 F       1  UNL1       -0.1659
     18 F         141.6734  143.4951  170.2785 F       1  UNL1       -0.1659
     19 F         144.5665  142.7036  170.2153 F       1  UNL1       -0.1659
     20 C         140.0945  142.7088  164.0744 C.2     1  UNL1        0.2401
     21 O         140.0558  143.4147  164.4427 O.2     1  UNL1       -0.2736
     22 N         140.6142  141.3569  164.4646 N.am    1  UNL1       -0.2991
     23 H         140.5569  140.6057  163.8308 H       1  UNL1        0.1500
     24 C         139.4873  142.9162  162.7185 C.3     1  UNL1        0.1731
     25 C         137.2474  141.7746  163.3740 C.3     1  UNL1        0.0863
     26 N         138.2495  142.1643  162.3280 N.3     1  UNL1       -0.2878
     27 H         137.7558  142.7426  161.6482 H       1  UNL1        0.1238
     28 C         140.1180  143.8756  161.7531 C.3     1  UNL1        0.2851
     29 O         138.8988  144.7467  161.8223 O.3     1  UNL1       -0.3715
     30 H         138.2515  144.3496  162.4258 H       1  UNL1        0.2109
     31 C         140.7486  144.8349  160.7877 C.3     1  UNL1        0.4292
     32 F         141.3792  145.7942  159.8224 F       1  UNL1       -0.1672
     33 F         140.5489  145.9526  161.7680 F       1  UNL1       -0.1672
     34 F         141.0236  143.8425  159.6972 F       1  UNL1       -0.1672
     35 C         141.3372  143.0045  161.6839 C.3     1  UNL1        0.4292
     36 F         142.5564  142.1333  161.6146 F       1  UNL1       -0.1672
     37 F         142.3056  144.0000  162.2504 F       1  UNL1       -0.1672
     38 F         140.8307  141.7166  161.1050 F       1  UNL1       -0.1672
     39 C         139.8509  140.9968  166.4107 C.3     1  UNL1        0.0528
     40 C         139.1514  139.6712  166.3497 C.ar    1  UNL1       -0.0199
     41 C         138.0898  139.3364  167.3551 C.ar    1  UNL1       -0.0042
     42 C         137.3904  138.0109  167.2941 C.ar    1  UNL1       -0.0003
     43 C         137.7525  137.0202  166.2276 C.ar    1  UNL1       -0.0000
     44 C         138.8141  137.3550  165.2222 C.ar    1  UNL1       -0.0003
     45 C         139.5135  138.6805  165.2832 C.ar    1  UNL1       -0.0042
@<TRIPOS>BOND
     1    25    26    1
     2    26    24    1
     3    24    20    1
     4    20    21    2
     5    20    22   am
     6    22     1    1
     7     1    39    1
     8    39    40    1
     9    40    41   ar
    10    41    42   ar
    11    42    43   ar
    12    43    44   ar
    13    44    45   ar
    14     1     2    1
    15     2     3   ar
    16     3     4   ar
    17     4     5   ar
    18     5     6    1
    19     5     7   ar
    20     7     8   ar
    21     1     9    1
    22     9    10   ar
    23    10    11   ar
    24    11    12    1
    25    11    13   ar
    26    13    14   ar
    27    14    16    1
    28    16    17    1
    29    16    18    1
    30    16    19    1
    31    14    15   ar
    32    24    28    1
    33    28    29    1
    34    28    31    1
    35    31    32    1
    36    31    33    1
    37    31    34    1
    38    28    35    1
    39    35    36    1
    40    35    37    1
    41    35    38    1
    42    45    40   ar
    43     8     2   ar
    44    15     9   ar
    45    26    27    1
    46    22    23    1
    47    29    30    1
@<TRIPOS>MOLECULE
*****
 45 47 0 0 0
SMALL
GASTEIGER

@<TRIPOS>ATOM
      1 C         140.6830  140.2082  165.3756 C.3     1  UNL1        0.0988
      2 C         142.0843  139.6801  165.4637 C.ar    1  UNL1       -0.0020
      3 C         143.1569  140.2489  164.5828 C.ar    1  UNL1       -0.0001
      4 C         144.5581  139.7208  164.6708 C.ar    1  UNL1        0.0294
      5 C         144.8867  138.6240  165.6398 C.ar    1  UNL1        0.1401
      6 F         146.2879  138.0959  165.7279 F       1  UNL1       -0.2042
      7 C         143.8141  138.0552  166.5207 C.ar    1  UNL1        0.0294
      8 C         142.4129  138.5832  166.4327 C.ar    1  UNL1       -0.0001
      9 C         140.7156  140.5385  166.8384 C.ar    1  UNL1        0.0000
     10 C         139.5498  140.1846  167.7134 C.ar    1  UNL1        0.0272
     11 C         139.5825  140.5149  169.1762 C.ar    1  UNL1        0.1398
     12 F         138.4167  140.1610  170.0512 F       1  UNL1       -0.2042
     13 C         140.7809  141.1992  169.7640 C.ar    1  UNL1        0.0335
     14 C         141.9467  141.5532  168.8890 C.ar    1  UNL1        0.0734
     15 C         141.9141  141.2229  167.4262 C.ar    1  UNL1        0.0016
     16 C         143.1451  142.2376  169.4769 C.3     1  UNL1        0.4186
     17 F         144.3435  142.9219  170.0646 F       1  UNL1       -0.1659
     18 F         142.6031  142.0024  170.8557 F       1  UNL1       -0.1659
     19 F         143.6871  142.4727  168.0981 F       1  UNL1       -0.1659
     20 C         140.2102  138.5169  163.4609 C.2     1  UNL1        0.2401
     21 O         139.9649  137.8600  163.8400 O.2     1  UNL1       -0.2736
     22 N         140.6504  139.8778  163.9128 N.am    1  UNL1       -0.2991
     23 H         140.9180  140.5542  163.2494 H       1  UNL1        0.1500
     24 C         140.1776  138.1866  161.9981 C.3     1  UNL1        0.1731
     25 C         137.6108  138.3491  161.6300 C.3     1  UNL1        0.0863
     26 N         138.9185  137.6594  161.3761 N.3     1  UNL1       -0.2878
     27 H         139.0637  137.6659  160.3665 H       1  UNL1        0.1238
     28 C         141.4041  138.3834  161.1572 C.3     1  UNL1        0.2851
     29 O         142.2096  137.5959  162.1477 O.3     1  UNL1       -0.3715
     30 H         141.6354  137.3061  162.8739 H       1  UNL1        0.2109
     31 C         142.6305  138.5802  160.3164 C.3     1  UNL1        0.4292
     32 F         143.8570  138.7770  159.4756 F       1  UNL1       -0.1672
     33 F         142.8552  137.0972  160.2970 F       1  UNL1       -0.1672
     34 F         142.5571  140.0760  160.2332 F       1  UNL1       -0.1672
     35 C         140.5987  139.1710  160.1667 C.3     1  UNL1        0.4292
     36 F         139.7933  139.9586  159.1762 F       1  UNL1       -0.1672
     37 F         140.7383  138.2169  159.0178 F       1  UNL1       -0.1672
     38 F         140.1714  140.3881  160.9323 F       1  UNL1       -0.1672
     39 C         139.2819  140.7363  165.2876 C.3     1  UNL1        0.0528
     40 C         139.0197  142.0629  164.6383 C.ar    1  UNL1       -0.0199
     41 C         139.8217  143.2655  165.0388 C.ar    1  UNL1       -0.0042
     42 C         139.5596  144.5920  164.3896 C.ar    1  UNL1       -0.0003
     43 C         138.4954  144.7159  163.3398 C.ar    1  UNL1       -0.0000
     44 C         137.6933  143.5133  162.9392 C.ar    1  UNL1       -0.0003
     45 C         137.9555  142.1868  163.5885 C.ar    1  UNL1       -0.0042
@<TRIPOS>BOND
     1    25    26    1
     2    26    24    1
     3    24    20    1
     4    20    21    2
     5    20    22   am
     6    22     1    1
     7     1    39    1
     8    39    40    1
     9    40    41   ar
    10    41    42   ar
    11    42    43   ar
    12    43    44   ar
    13    44    45   ar
    14     1     2    1
    15     2     3   ar
    16     3     4   ar
    17     4     5   ar
    18     5     6    1
    19     5     7   ar
    20     7     8   ar
    21     1     9    1
    22     9    10   ar
    23    10    11   ar
    24    11    12    1
    25    11    13   ar
    26    13    14   ar
    27    14    16    1
    28    16    17    1
    29    16    18    1
    30    16    19    1
    31    14    15   ar
    32    24    28    1
    33    28    29    1
    34    28    31    1
    35    31    32    1
    36    31    33    1
    37    31    34    1
    38    28    35    1
    39    35    36    1
    40    35    37    1
    41    35    38    1
    42    45    40   ar
    43     8     2   ar
    44    15     9   ar
    45    26    27    1
    46    22    23    1
    47    29    30    1
@<TRIPOS>MOLECULE
*****
 45 47 0 0 0
SMALL
GASTEIGER

@<TRIPOS>ATOM
      1 C         141.1243  141.2584  165.6242 C.3     1  UNL1        0.0988
      2 C         140.1881  140.1058  165.8367 C.ar    1  UNL1       -0.0020
      3 C         139.1856  140.1496  166.9516 C.ar    1  UNL1       -0.0001
      4 C         138.2494  138.9971  167.1641 C.ar    1  UNL1        0.0294
      5 C         138.3157  137.8008  166.2617 C.ar    1  UNL1        0.1401
      6 F         137.3795  136.6482  166.4741 F       1  UNL1       -0.2042
      7 C         139.3183  137.7570  165.1468 C.ar    1  UNL1        0.0294
      8 C         140.2545  138.9095  164.9343 C.ar    1  UNL1       -0.0001
      9 C         141.7329  141.0127  166.9730 C.ar    1  UNL1        0.0000
     10 C         142.0615  139.6141  167.4040 C.ar    1  UNL1        0.0272
     11 C         142.6701  139.3684  168.7529 C.ar    1  UNL1        0.1398
     12 F         142.9988  137.9697  169.1839 F       1  UNL1       -0.2042
     13 C         142.9500  140.5213  169.6707 C.ar    1  UNL1        0.0335
     14 C         142.6213  141.9199  169.2397 C.ar    1  UNL1        0.0734
     15 C         142.0128  142.1657  167.8909 C.ar    1  UNL1        0.0016
     16 C         142.9012  143.0729  170.1576 C.3     1  UNL1        0.4186
     17 F         143.1811  144.2258  171.0754 F       1  UNL1       -0.1659
     18 F         144.3391  142.6546  170.2445 F       1  UNL1       -0.1659
     19 F         141.4634  143.4911  170.0706 F       1  UNL1       -0.1659
     20 C         139.3517  142.4400  164.1371 C.2     1  UNL1        0.2401
     21 O         138.9336  142.8836  164.6508 O.2     1  UNL1       -0.2736
     22 N         140.5158  141.5042  164.2755 N.am    1  UNL1       -0.2991
     23 H         140.8804  141.0513  163.4810 H       1  UNL1        0.1500
     24 C         138.7431  142.6857  162.7883 C.3     1  UNL1        0.1731
     25 C         139.1278  145.2477  162.5915 C.3     1  UNL1        0.0863
     26 N         138.2364  144.0518  162.4317 N.3     1  UNL1       -0.2878
     27 H         137.9631  144.0174  161.4496 H       1  UNL1        0.1238
     28 C         138.6413  141.5654  161.7960 C.3     1  UNL1        0.2851
     29 O         137.9690  140.7110  162.8297 O.3     1  UNL1       -0.3715
     30 H         137.8862  141.2099  163.6574 H       1  UNL1        0.2109
     31 C         138.5394  140.4451  160.8038 C.3     1  UNL1        0.4292
     32 F         138.4375  139.3248  159.8117 F       1  UNL1       -0.1672
     33 F         137.0655  140.3475  161.0653 F       1  UNL1       -0.1672
     34 F         139.9898  140.4053  160.4235 F       1  UNL1       -0.1672
     35 C         139.3134  142.4196  160.7624 C.3     1  UNL1        0.4292
     36 F         139.9857  143.2739  159.7288 F       1  UNL1       -0.1672
     37 F         138.1469  142.5252  159.8256 F       1  UNL1       -0.1672
     38 F         140.6968  142.6250  161.3050 F       1  UNL1       -0.1672
     39 C         142.0605  142.4110  165.4118 C.3     1  UNL1        0.0528
     40 C         143.2190  142.2723  164.4691 C.ar    1  UNL1       -0.0199
     41 C         144.1509  141.1035  164.5927 C.ar    1  UNL1       -0.0042
     42 C         145.3093  140.9649  163.6500 C.ar    1  UNL1       -0.0003
     43 C         145.5359  141.9952  162.5836 C.ar    1  UNL1       -0.0000
     44 C         144.6040  143.1640  162.4599 C.ar    1  UNL1       -0.0003
     45 C         143.4456  143.3026  163.4027 C.ar    1  UNL1       -0.0042
@<TRIPOS>BOND
     1    25    26    1
     2    26    24    1
     3    24    20    1
     4    20    21    2
     5    20    22   am
     6    22     1    1
     7     1    39    1
     8    39    40    1
     9    40    41   ar
    10    41    42   ar
    11    42    43   ar
    12    43    44   ar
    13    44    45   ar
    14     1     2    1
    15     2     3   ar
    16     3     4   ar
    17     4     5   ar
    18     5     6    1
    19     5     7   ar
    20     7     8   ar
    21     1     9    1
    22     9    10   ar
    23    10    11   ar
    24    11    12    1
    25    11    13   ar
    26    13    14   ar
    27    14    16    1
    28    16    17    1
    29    16    18    1
    30    16    19    1
    31    14    15   ar
    32    24    28    1
    33    28    29    1
    34    28    31    1
    35    31    32    1
    36    31    33    1
    37    31    34    1
    38    28    35    1
    39    35    36    1
    40    35    37    1
    41    35    38    1
    42    45    40   ar
    43     8     2   ar
    44    15     9   ar
    45    26    27    1
    46    22    23    1
    47    29    30    1
@<TRIPOS>MOLECULE
*****
 45 47 0 0 0
SMALL
GASTEIGER

@<TRIPOS>ATOM
      1 C         140.5726  140.8582  165.2430 C.3     1  UNL1        0.0988
      2 C         139.7121  139.6862  165.6118 C.ar    1  UNL1       -0.0020
      3 C         138.6541  139.8344  166.6647 C.ar    1  UNL1       -0.0001
      4 C         137.7936  138.6624  167.0335 C.ar    1  UNL1        0.0294
      5 C         137.9911  137.3423  166.3493 C.ar    1  UNL1        0.1401
      6 F         137.1306  136.1702  166.7181 F       1  UNL1       -0.2042
      7 C         139.0491  137.1941  165.2964 C.ar    1  UNL1        0.0294
      8 C         139.9096  138.3660  164.9276 C.ar    1  UNL1       -0.0001
      9 C         141.0588  140.9467  166.6592 C.ar    1  UNL1        0.0000
     10 C         141.7344  139.7682  167.2953 C.ar    1  UNL1        0.0272
     11 C         142.2207  139.8567  168.7116 C.ar    1  UNL1        0.1398
     12 F         142.8963  138.6782  169.3477 F       1  UNL1       -0.2042
     13 C         142.0313  141.1238  169.4917 C.ar    1  UNL1        0.0335
     14 C         141.3557  142.3023  168.8557 C.ar    1  UNL1        0.0734
     15 C         140.8695  142.2138  167.4395 C.ar    1  UNL1        0.0016
     16 C         141.1664  143.5694  169.6359 C.3     1  UNL1        0.4186
     17 F         140.9771  144.8365  170.4161 F       1  UNL1       -0.1659
     18 F         139.9542  143.8943  168.8141 F       1  UNL1       -0.1659
     19 F         142.3784  143.2445  170.4576 F       1  UNL1       -0.1659
     20 C         138.9076  141.5861  163.3861 C.2     1  UNL1        0.2401
     21 O         138.4269  142.1068  163.7513 O.2     1  UNL1       -0.2736
     22 N         140.0863  140.7697  163.8268 N.am    1  UNL1       -0.2991
     23 H         140.5408  140.1758  163.1866 H       1  UNL1        0.1500
     24 C         138.4214  141.4976  161.9699 C.3     1  UNL1        0.1731
     25 C         137.6964  139.0063  161.8360 C.3     1  UNL1        0.0863
     26 N         137.4102  140.4577  161.5877 N.3     1  UNL1       -0.2878
     27 H         136.5534  140.6797  162.0947 H       1  UNL1        0.1238
     28 C         138.9463  142.4490  160.9358 C.3     1  UNL1        0.2851
     29 O         137.6427  143.1908  160.9565 O.3     1  UNL1       -0.3715
     30 H         137.0416  142.7706  161.5915 H       1  UNL1        0.2109
     31 C         139.4712  143.4005  159.9018 C.3     1  UNL1        0.4292
     32 F         139.9960  144.3519  158.8678 F       1  UNL1       -0.1672
     33 F         139.4117  144.5184  160.9002 F       1  UNL1       -0.1672
     34 F         139.5941  142.4069  158.7849 F       1  UNL1       -0.1672
     35 C         140.2499  141.7073  160.9151 C.3     1  UNL1        0.4292
     36 F         141.5535  140.9656  160.8943 F       1  UNL1       -0.1672
     37 F         141.0862  142.7902  161.5296 F       1  UNL1       -0.1672
     38 F         139.9031  140.3807  160.3067 F       1  UNL1       -0.1672
     39 C         141.4331  142.0302  164.8744 C.3     1  UNL1        0.0528
     40 C         142.8709  141.8177  164.5035 C.ar    1  UNL1       -0.0199
     41 C         143.3214  140.4867  163.9789 C.ar    1  UNL1       -0.0042
     42 C         144.7592  140.2743  163.6080 C.ar    1  UNL1       -0.0003
     43 C         145.7465  141.3930  163.7618 C.ar    1  UNL1       -0.0000
     44 C         145.2961  142.7241  164.2864 C.ar    1  UNL1       -0.0003
     45 C         143.8583  142.9364  164.6573 C.ar    1  UNL1       -0.0042
@<TRIPOS>BOND
     1    25    26    1
     2    26    24    1
     3    24    20    1
     4    20    21    2
     5    20    22   am
     6    22     1    1
     7     1    39    1
     8    39    40    1
     9    40    41   ar
    10    41    42   ar
    11    42    43   ar
    12    43    44   ar
    13    44    45   ar
    14     1     2    1
    15     2     3   ar
    16     3     4   ar
    17     4     5   ar
    18     5     6    1
    19     5     7   ar
    20     7     8   ar
    21     1     9    1
    22     9    10   ar
    23    10    11   ar
    24    11    12    1
    25    11    13   ar
    26    13    14   ar
    27    14    16    1
    28    16    17    1
    29    16    18    1
    30    16    19    1
    31    14    15   ar
    32    24    28    1
    33    28    29    1
    34    28    31    1
    35    31    32    1
    36    31    33    1
    37    31    34    1
    38    28    35    1
    39    35    36    1
    40    35    37    1
    41    35    38    1
    42    45    40   ar
    43     8     2   ar
    44    15     9   ar
    45    26    27    1
    46    22    23    1
    47    29    30    1
@<TRIPOS>MOLECULE
*****
 45 47 0 0 0
SMALL
GASTEIGER

@<TRIPOS>ATOM
      1 C         140.4185  141.6611  165.7078 C.3     1  UNL1        0.0988
      2 C         139.7446  140.3233  165.7872 C.ar    1  UNL1       -0.0020
      3 C         138.6453  140.0952  166.7820 C.ar    1  UNL1       -0.0001
      4 C         137.9714  138.7575  166.8614 C.ar    1  UNL1        0.0294
      5 C         138.3968  137.6479  165.9461 C.ar    1  UNL1        0.1401
      6 F         137.7229  136.3101  166.0255 F       1  UNL1       -0.2042
      7 C         139.4961  137.8760  164.9514 C.ar    1  UNL1        0.0294
      8 C         140.1700  139.2138  164.8719 C.ar    1  UNL1       -0.0001
      9 C         140.8389  141.5344  167.1421 C.ar    1  UNL1        0.0000
     10 C         140.5882  142.6616  168.0995 C.ar    1  UNL1        0.0272
     11 C         141.0086  142.5348  169.5339 C.ar    1  UNL1        0.1398
     12 F         140.7580  143.6620  170.4913 F       1  UNL1       -0.2042
     13 C         141.6797  141.2810  170.0107 C.ar    1  UNL1        0.0335
     14 C         141.9304  140.1538  169.0533 C.ar    1  UNL1        0.0734
     15 C         141.5100  140.2805  167.6190 C.ar    1  UNL1        0.0016
     16 C         142.6015  138.8999  169.5302 C.3     1  UNL1        0.4186
     17 F         143.2726  137.6460  170.0070 F       1  UNL1       -0.1659
     18 F         142.2509  139.2507  170.9459 F       1  UNL1       -0.1659
     19 F         142.9521  138.5492  168.1146 F       1  UNL1       -0.1659
     20 C         138.6839  142.4246  163.9306 C.2     1  UNL1        0.2401
     21 O         138.0942  142.7442  164.3615 O.2     1  UNL1       -0.2736
     22 N         139.9981  141.7878  164.2736 N.am    1  UNL1       -0.2991
     23 H         140.5847  141.4531  163.5573 H       1  UNL1        0.1500
     24 C         138.2635  142.5513  162.4964 C.3     1  UNL1        0.1731
     25 C         138.5399  145.1239  162.2612 C.3     1  UNL1        0.0863
     26 N         137.7721  143.8680  161.9723 N.3     1  UNL1       -0.2878
     27 H         137.7215  143.7807  160.9574 H       1  UNL1        0.1238
     28 C         138.3345  141.3611  161.5860 C.3     1  UNL1        0.2851
     29 O         137.5059  140.5706  162.5549 O.3     1  UNL1       -0.3715
     30 H         137.2840  141.1258  163.3187 H       1  UNL1        0.2109
     31 C         138.4055  140.1710  160.6758 C.3     1  UNL1        0.4292
     32 F         138.4765  138.9810  159.7655 F       1  UNL1       -0.1672
     33 F         136.9089  140.0702  160.6909 F       1  UNL1       -0.1672
     34 F         139.8994  140.1261  160.5498 F       1  UNL1       -0.1672
     35 C         139.1631  142.1516  160.6172 C.3     1  UNL1        0.4292
     36 F         139.9917  142.9420  159.6484 F       1  UNL1       -0.1672
     37 F         138.1743  142.1527  159.4894 F       1  UNL1       -0.1672
     38 F         140.4290  142.4359  161.3700 F       1  UNL1       -0.1672
     39 C         141.0924  142.9989  165.6285 C.3     1  UNL1        0.0528
     40 C         142.2183  143.2153  164.6612 C.ar    1  UNL1       -0.0199
     41 C         142.1565  144.3477  163.6795 C.ar    1  UNL1       -0.0042
     42 C         143.2823  144.5641  162.7123 C.ar    1  UNL1       -0.0003
     43 C         144.4701  143.6481  162.7268 C.ar    1  UNL1       -0.0000
     44 C         144.5319  142.5157  163.7085 C.ar    1  UNL1       -0.0003
     45 C         143.4060  142.2993  164.6757 C.ar    1  UNL1       -0.0042
@<TRIPOS>BOND
     1    25    26    1
     2    26    24    1
     3    24    20    1
     4    20    21    2
     5    20    22   am
     6    22     1    1
     7     1    39    1
     8    39    40    1
     9    40    41   ar
    10    41    42   ar
    11    42    43   ar
    12    43    44   ar
    13    44    45   ar
    14     1     2    1
    15     2     3   ar
    16     3     4   ar
    17     4     5   ar
    18     5     6    1
    19     5     7   ar
    20     7     8   ar
    21     1     9    1
    22     9    10   ar
    23    10    11   ar
    24    11    12    1
    25    11    13   ar
    26    13    14   ar
    27    14    16    1
    28    16    17    1
    29    16    18    1
    30    16    19    1
    31    14    15   ar
    32    24    28    1
    33    28    29    1
    34    28    31    1
    35    31    32    1
    36    31    33    1
    37    31    34    1
    38    28    35    1
    39    35    36    1
    40    35    37    1
    41    35    38    1
    42    45    40   ar
    43     8     2   ar
    44    15     9   ar
    45    26    27    1
    46    22    23    1
    47    29    30    1
@<TRIPOS>MOLECULE
*****
 45 47 0 0 0
SMALL
GASTEIGER

@<TRIPOS>ATOM
      1 C         140.9622  140.9217  165.5781 C.3     1  UNL1        0.0988
      2 C         140.0510  139.7367  165.7035 C.ar    1  UNL1       -0.0020
      3 C         138.8334  139.8160  166.5759 C.ar    1  UNL1       -0.0001
      4 C         137.9222  138.6311  166.7013 C.ar    1  UNL1        0.0294
      5 C         138.2286  137.3670  165.9544 C.ar    1  UNL1        0.1401
      6 F         137.3174  136.1820  166.0798 F       1  UNL1       -0.2042
      7 C         139.4463  137.2877  165.0820 C.ar    1  UNL1        0.0294
      8 C         140.3575  138.4726  164.9565 C.ar    1  UNL1       -0.0001
      9 C         141.1362  140.9455  167.0677 C.ar    1  UNL1        0.0000
     10 C         141.9146  139.8595  167.7493 C.ar    1  UNL1        0.0272
     11 C         142.0886  139.8833  169.2391 C.ar    1  UNL1        0.1398
     12 F         142.8671  138.7973  169.9207 F       1  UNL1       -0.2042
     13 C         141.4842  140.9932  170.0471 C.ar    1  UNL1        0.0335
     14 C         140.7058  142.0792  169.3655 C.ar    1  UNL1        0.0734
     15 C         140.5318  142.0554  167.8758 C.ar    1  UNL1        0.0016
     16 C         140.1013  143.1890  170.1736 C.3     1  UNL1        0.4186
     17 F         139.4968  144.2988  170.9816 F       1  UNL1       -0.1659
     18 F         141.2557  144.0778  169.8163 F       1  UNL1       -0.1659
     19 F         138.9470  142.3002  170.5307 F       1  UNL1       -0.1659
     20 C         139.7298  141.7428  163.4433 C.2     1  UNL1        0.2401
     21 O         139.1823  142.2517  163.7203 O.2     1  UNL1       -0.2736
     22 N         140.7882  140.8979  164.0884 N.am    1  UNL1       -0.2991
     23 H         141.3686  140.3278  163.5341 H       1  UNL1        0.1500
     24 C         139.5558  141.7190  161.9537 C.3     1  UNL1        0.1731
     25 C         139.6153  143.6607  160.2284 C.3     1  UNL1        0.0863
     26 N         138.8752  142.8614  161.2597 N.3     1  UNL1       -0.2878
     27 H         138.0509  142.4766  160.7982 H       1  UNL1        0.1238
     28 C         140.0625  140.5527  161.1579 C.3     1  UNL1        0.2851
     29 O         141.4722  141.0172  161.3747 O.3     1  UNL1       -0.3715
     30 H         141.4672  141.8283  161.9066 H       1  UNL1        0.2109
     31 C         140.5692  139.3865  160.3622 C.3     1  UNL1        0.4292
     32 F         141.0758  138.2203  159.5664 F       1  UNL1       -0.1672
     33 F         141.2772  140.3278  159.4333 F       1  UNL1       -0.1672
     34 F         139.9282  138.3101  161.1870 F       1  UNL1       -0.1672
     35 C         138.6528  140.0882  160.9410 C.3     1  UNL1        0.4292
     36 F         137.2431  139.6236  160.7243 F       1  UNL1       -0.1672
     37 F         138.6094  140.3208  159.4599 F       1  UNL1       -0.1672
     38 F         138.1861  139.6930  162.3108 F       1  UNL1       -0.1672
     39 C         141.8734  142.1066  165.4527 C.3     1  UNL1        0.0528
     40 C         143.1451  141.9948  164.6651 C.ar    1  UNL1       -0.0199
     41 C         144.0472  140.8126  164.8610 C.ar    1  UNL1       -0.0042
     42 C         145.3188  140.7008  164.0734 C.ar    1  UNL1       -0.0003
     43 C         145.6884  141.7713  163.0898 C.ar    1  UNL1       -0.0000
     44 C         144.7863  142.9536  162.8939 C.ar    1  UNL1       -0.0003
     45 C         143.5146  143.0653  163.6815 C.ar    1  UNL1       -0.0042
@<TRIPOS>BOND
     1    25    26    1
     2    26    24    1
     3    24    20    1
     4    20    21    2
     5    20    22   am
     6    22     1    1
     7     1    39    1
     8    39    40    1
     9    40    41   ar
    10    41    42   ar
    11    42    43   ar
    12    43    44   ar
    13    44    45   ar
    14     1     2    1
    15     2     3   ar
    16     3     4   ar
    17     4     5   ar
    18     5     6    1
    19     5     7   ar
    20     7     8   ar
    21     1     9    1
    22     9    10   ar
    23    10    11   ar
    24    11    12    1
    25    11    13   ar
    26    13    14   ar
    27    14    16    1
    28    16    17    1
    29    16    18    1
    30    16    19    1
    31    14    15   ar
    32    24    28    1
    33    28    29    1
    34    28    31    1
    35    31    32    1
    36    31    33    1
    37    31    34    1
    38    28    35    1
    39    35    36    1
    40    35    37    1
    41    35    38    1
    42    45    40   ar
    43     8     2   ar
    44    15     9   ar
    45    26    27    1
    46    22    23    1
    47    29    30    1
@<TRIPOS>MOLECULE
*****
 45 47 0 0 0
SMALL
GASTEIGER

@<TRIPOS>ATOM
      1 C         140.3011  141.1295  165.1693 C.3     1  UNL1        0.0988
      2 C         139.5707  139.8701  165.5309 C.ar    1  UNL1       -0.0020
      3 C         138.4781  139.9053  166.5580 C.ar    1  UNL1       -0.0001
      4 C         137.7478  138.6461  166.9196 C.ar    1  UNL1        0.0294
      5 C         138.1099  137.3516  166.2540 C.ar    1  UNL1        0.1401
      6 F         137.3796  136.0922  166.6155 F       1  UNL1       -0.2042
      7 C         139.2025  137.3164  165.2268 C.ar    1  UNL1        0.0294
      8 C         139.9329  138.5757  164.8652 C.ar    1  UNL1       -0.0001
      9 C         140.6853  141.3193  166.6067 C.ar    1  UNL1        0.0000
     10 C         140.4188  142.6289  167.2877 C.ar    1  UNL1        0.0272
     11 C         140.8031  142.8186  168.7253 C.ar    1  UNL1        0.1398
     12 F         140.5365  144.1283  169.4063 F       1  UNL1       -0.2042
     13 C         141.4538  141.6987  169.4817 C.ar    1  UNL1        0.0335
     14 C         141.7204  140.3891  168.8007 C.ar    1  UNL1        0.0734
     15 C         141.3361  140.1993  167.3633 C.ar    1  UNL1        0.0016
     16 C         142.3712  139.2692  169.5573 C.3     1  UNL1        0.4186
     17 F         143.0220  138.1493  170.3137 F       1  UNL1       -0.1659
     18 F         141.7959  139.7994  170.8371 F       1  UNL1       -0.1659
     19 F         142.9464  138.7390  168.2775 F       1  UNL1       -0.1659
     20 C         138.6055  141.4677  163.2300 C.2     1  UNL1        0.2401
     21 O         138.0016  141.8630  163.5685 O.2     1  UNL1       -0.2736
     22 N         139.9168  140.9397  163.7319 N.am    1  UNL1       -0.2991
     23 H         140.5252  140.4686  163.1178 H       1  UNL1        0.1500
     24 C         138.2213  141.2780  161.7926 C.3     1  UNL1        0.1731
     25 C         137.7841  138.7169  161.8036 C.3     1  UNL1        0.0863
     26 N         137.3824  140.1016  161.3895 N.3     1  UNL1       -0.2878
     27 H         136.4486  140.2626  161.7670 H       1  UNL1        0.1238
     28 C         138.6758  142.2646  160.7582 C.3     1  UNL1        0.2851
     29 O         137.6848  143.2644  161.2763 O.3     1  UNL1       -0.3715
     30 H         137.1941  142.8784  162.0186 H       1  UNL1        0.2109
     31 C         139.1304  143.2512  159.7238 C.3     1  UNL1        0.4292
     32 F         139.5849  144.2378  158.6894 F       1  UNL1       -0.1672
     33 F         138.0133  142.8191  158.8207 F       1  UNL1       -0.1672
     34 F         140.2944  143.8004  160.4940 F       1  UNL1       -0.1672
     35 C         139.6668  141.2649  160.2400 C.3     1  UNL1        0.4292
     36 F         140.6578  140.2651  159.7219 F       1  UNL1       -0.1672
     37 F         140.7926  141.6286  161.1620 F       1  UNL1       -0.1672
     38 F         138.9241  140.5482  159.1515 F       1  UNL1       -0.1672
     39 C         141.0314  142.3888  164.8078 C.3     1  UNL1        0.0528
     40 C         142.4095  142.3142  164.2201 C.ar    1  UNL1       -0.0199
     41 C         143.2402  141.0798  164.4104 C.ar    1  UNL1       -0.0042
     42 C         144.6182  141.0053  163.8227 C.ar    1  UNL1       -0.0003
     43 C         145.1656  142.1651  163.0448 C.ar    1  UNL1       -0.0000
     44 C         144.3349  143.3995  162.8545 C.ar    1  UNL1       -0.0003
     45 C         142.9569  143.4740  163.4422 C.ar    1  UNL1       -0.0042
@<TRIPOS>BOND
     1    25    26    1
     2    26    24    1
     3    24    20    1
     4    20    21    2
     5    20    22   am
     6    22     1    1
     7     1    39    1
     8    39    40    1
     9    40    41   ar
    10    41    42   ar
    11    42    43   ar
    12    43    44   ar
    13    44    45   ar
    14     1     2    1
    15     2     3   ar
    16     3     4   ar
    17     4     5   ar
    18     5     6    1
    19     5     7   ar
    20     7     8   ar
    21     1     9    1
    22     9    10   ar
    23    10    11   ar
    24    11    12    1
    25    11    13   ar
    26    13    14   ar
    27    14    16    1
    28    16    17    1
    29    16    18    1
    30    16    19    1
    31    14    15   ar
    32    24    28    1
    33    28    29    1
    34    28    31    1
    35    31    32    1
    36    31    33    1
    37    31    34    1
    38    28    35    1
    39    35    36    1
    40    35    37    1
    41    35    38    1
    42    45    40   ar
    43     8     2   ar
    44    15     9   ar
    45    26    27    1
    46    22    23    1
    47    29    30    1
@<TRIPOS>MOLECULE
*****
 45 47 0 0 0
SMALL
GASTEIGER

@<TRIPOS>ATOM
      1 C         140.6315  140.3348  165.1674 C.3     1  UNL1        0.0988
      2 C         142.0361  139.8178  165.2682 C.ar    1  UNL1       -0.0020
      3 C         143.1130  140.3983  164.4003 C.ar    1  UNL1       -0.0001
      4 C         144.5175  139.8814  164.5010 C.ar    1  UNL1        0.0294
      5 C         144.8450  138.7840  165.4696 C.ar    1  UNL1        0.1401
      6 F         146.2496  138.2670  165.5704 F       1  UNL1       -0.2042
      7 C         143.7681  138.2035  166.3375 C.ar    1  UNL1        0.0294
      8 C         142.3637  138.7204  166.2368 C.ar    1  UNL1       -0.0001
      9 C         140.6672  140.7144  166.6181 C.ar    1  UNL1        0.0000
     10 C         141.7412  141.6292  167.1277 C.ar    1  UNL1        0.0272
     11 C         141.7769  142.0089  168.5785 C.ar    1  UNL1        0.1398
     12 F         142.8509  142.9237  169.0882 F       1  UNL1       -0.2042
     13 C         140.7386  141.4737  169.5195 C.ar    1  UNL1        0.0335
     14 C         139.6647  140.5590  169.0099 C.ar    1  UNL1        0.0734
     15 C         139.6289  140.1793  167.5592 C.ar    1  UNL1        0.0016
     16 C         138.6264  140.0238  169.9510 C.3     1  UNL1        0.4186
     17 F         137.5881  139.4887  170.8921 F       1  UNL1       -0.1659
     18 F         139.4044  140.5617  171.1153 F       1  UNL1       -0.1659
     19 F         137.8484  139.4860  168.7868 F       1  UNL1       -0.1659
     20 C         140.1685  138.5751  163.3129 C.2     1  UNL1        0.2401
     21 O         139.9321  137.9286  163.7151 O.2     1  UNL1       -0.2736
     22 N         140.5958  139.9551  163.7167 N.am    1  UNL1       -0.2991
     23 H         140.8529  140.6116  163.0296 H       1  UNL1        0.1500
     24 C         140.1327  138.1954  161.8622 C.3     1  UNL1        0.1731
     25 C         137.5568  138.2940  161.5382 C.3     1  UNL1        0.0863
     26 N         138.8763  137.6352  161.2642 N.3     1  UNL1       -0.2878
     27 H         139.0038  137.6410  160.2523 H       1  UNL1        0.1238
     28 C         141.3535  138.3760  161.0094 C.3     1  UNL1        0.2851
     29 O         142.1699  137.6247  162.0189 O.3     1  UNL1       -0.3715
     30 H         141.6016  137.3527  162.7565 H       1  UNL1        0.2109
     31 C         142.5742  138.5565  160.1566 C.3     1  UNL1        0.4292
     32 F         143.7949  138.7371  159.3039 F       1  UNL1       -0.1672
     33 F         142.8179  137.0768  160.1921 F       1  UNL1       -0.1672
     34 F         142.4812  140.0471  160.0175 F       1  UNL1       -0.1672
     35 C         140.5372  139.1273  159.9999 C.3     1  UNL1        0.4292
     36 F         139.7208  139.8786  158.9903 F       1  UNL1       -0.1672
     37 F         140.6946  138.1496  158.8733 F       1  UNL1       -0.1672
     38 F         140.0885  140.3545  160.7367 F       1  UNL1       -0.1672
     39 C         139.2271  140.8517  165.0667 C.3     1  UNL1        0.0528
     40 C         138.9537  142.1483  164.3637 C.ar    1  UNL1       -0.0199
     41 C         139.4776  143.4342  164.9311 C.ar    1  UNL1       -0.0042
     42 C         139.2042  144.7307  164.2281 C.ar    1  UNL1       -0.0003
     43 C         138.4069  144.7413  162.9576 C.ar    1  UNL1       -0.0000
     44 C         137.8830  143.4555  162.3901 C.ar    1  UNL1       -0.0003
     45 C         138.1564  142.1590  163.0931 C.ar    1  UNL1       -0.0042
@<TRIPOS>BOND
     1    25    26    1
     2    26    24    1
     3    24    20    1
     4    20    21    2
     5    20    22   am
     6    22     1    1
     7     1    39    1
     8    39    40    1
     9    40    41   ar
    10    41    42   ar
    11    42    43   ar
    12    43    44   ar
    13    44    45   ar
    14     1     2    1
    15     2     3   ar
    16     3     4   ar
    17     4     5   ar
    18     5     6    1
    19     5     7   ar
    20     7     8   ar
    21     1     9    1
    22     9    10   ar
    23    10    11   ar
    24    11    12    1
    25    11    13   ar
    26    13    14   ar
    27    14    16    1
    28    16    17    1
    29    16    18    1
    30    16    19    1
    31    14    15   ar
    32    24    28    1
    33    28    29    1
    34    28    31    1
    35    31    32    1
    36    31    33    1
    37    31    34    1
    38    28    35    1
    39    35    36    1
    40    35    37    1
    41    35    38    1
    42    45    40   ar
    43     8     2   ar
    44    15     9   ar
    45    26    27    1
    46    22    23    1
    47    29    30    1
