@<TRIPOS>MOLECULE
*****
 29 32 0 0 0
SMALL
GASTEIGER

@<TRIPOS>ATOM
      1 C         139.0891  144.6666  164.8928 C.3     1  UNL1        0.0282
      2 C         139.6517  144.0654  163.6390 C.3     1  UNL1        0.1189
      3 C         139.6927  144.8703  162.3739 C.ar    1  UNL1        0.1138
      4 N         139.2549  146.2704  162.0606 N.ar    1  UNL1       -0.1315
      5 N         139.5470  146.5343  160.6132 N.ar    1  UNL1       -0.0576
      6 N         140.1653  145.2974  160.0320 N.ar    1  UNL1       -0.1813
      7 C         140.2554  144.2690  161.1202 C.ar    1  UNL1        0.0837
      8 C         140.7771  142.8627  161.1315 C.3     1  UNL1        0.0688
      9 C         140.7361  142.0577  162.3966 C.3     1  UNL1        0.1004
     10 N         140.1734  142.6590  163.6502 N.am    1  UNL1       -0.2719
     11 C         140.1325  141.8540  164.9153 C.2     1  UNL1        0.2501
     12 O         139.5698  142.4553  166.1690 O.2     1  UNL1       -0.2699
     13 C         140.6541  140.4477  164.9266 C.ar    1  UNL1        0.0641
     14 C         139.7508  139.3096  164.5541 C.ar    1  UNL1        0.0054
     15 C         140.2725  137.9033  164.5654 C.ar    1  UNL1        0.0001
     16 C         141.6975  137.6350  164.9493 C.ar    1  UNL1        0.0047
     17 C         142.6009  138.7732  165.3218 C.ar    1  UNL1        0.0821
     18 C         142.0792  140.1795  165.3105 C.ar    1  UNL1        0.0659
     19 CL        142.9825  141.3175  165.6831 Cl      1  UNL1       -0.0822
     20 C         144.0259  138.5049  165.7057 C.3     1  UNL1        0.4194
     21 F         145.4509  138.2366  166.0896 F       1  UNL1       -0.1658
     22 F         144.4672  138.8629  164.3175 F       1  UNL1       -0.1658
     23 F         143.5846  138.1469  167.0939 F       1  UNL1       -0.1658
     24 C         140.6146  145.1201  158.6119 C.ar    1  UNL1        0.2541
     25 N         141.8879  145.7594  158.1428 N.ar    1  UNL1       -0.2084
     26 C         142.3373  145.5821  156.7226 C.ar    1  UNL1        0.1037
     27 C         141.5135  144.7655  155.7717 C.ar    1  UNL1        0.0415
     28 C         140.2401  144.1262  156.2409 C.ar    1  UNL1        0.1037
     29 N         139.7907  144.3034  157.6609 N.ar    1  UNL1       -0.2084
@<TRIPOS>BOND
     1     2     1    1
     2     2     3    1
     3     3     4   ar
     4     4     5   ar
     5     5     6   ar
     6     6    24    1
     7    24    25   ar
     8    25    26   ar
     9    26    27   ar
    10    27    28   ar
    11    28    29   ar
    12     6     7   ar
    13     7     8    1
    14     8     9    1
    15     9    10    1
    16    10    11   am
    17    11    12    2
    18    11    13    1
    19    13    14   ar
    20    14    15   ar
    21    15    16   ar
    22    16    17   ar
    23    17    20    1
    24    20    21    1
    25    20    22    1
    26    20    23    1
    27    17    18   ar
    28    18    19    1
    29    10     2    1
    30    18    13   ar
    31     7     3   ar
    32    29    24   ar
@<TRIPOS>MOLECULE
*****
 29 32 0 0 0
SMALL
GASTEIGER

@<TRIPOS>ATOM
      1 C         139.5164  145.5806  162.6651 C.3     1  UNL1        0.0282
      2 C         140.2044  144.3284  162.2082 C.3     1  UNL1        0.1189
      3 C         141.0256  144.3390  160.9531 C.ar    1  UNL1        0.1138
      4 N         141.3371  145.4253  159.9667 N.ar    1  UNL1       -0.1315
      5 N         142.2176  144.8444  158.9002 N.ar    1  UNL1       -0.0576
      6 N         142.4503  143.3991  159.2275 N.ar    1  UNL1       -0.1813
      7 C         141.7136  143.0868  160.4963 C.ar    1  UNL1        0.0837
      8 C         141.5803  141.8239  161.2946 C.3     1  UNL1        0.0688
      9 C         140.7591  141.8133  162.5498 C.3     1  UNL1        0.1004
     10 N         140.0712  143.0654  163.0066 N.am    1  UNL1       -0.2719
     11 C         139.2499  143.0548  164.2618 C.2     1  UNL1        0.2501
     12 O         138.5619  144.3070  164.7186 O.2     1  UNL1       -0.2699
     13 C         139.1166  141.7919  165.0602 C.ar    1  UNL1        0.0641
     14 C         138.1894  140.7070  164.5984 C.ar    1  UNL1        0.0054
     15 C         138.0562  139.4441  165.3968 C.ar    1  UNL1        0.0001
     16 C         138.8501  139.2662  166.6569 C.ar    1  UNL1        0.0047
     17 C         139.7773  140.3511  167.1187 C.ar    1  UNL1        0.0821
     18 C         139.9106  141.6140  166.3204 C.ar    1  UNL1        0.0659
     19 CL        140.8378  142.6989  166.7822 Cl      1  UNL1       -0.0822
     20 C         140.5713  140.1732  168.3789 C.3     1  UNL1        0.4194
     21 F         141.3652  139.9952  169.6391 F       1  UNL1       -0.1658
     22 F         139.4575  140.7947  169.1684 F       1  UNL1       -0.1658
     23 F         141.6850  139.5516  167.5894 F       1  UNL1       -0.1658
     24 C         143.2748  142.4355  158.4267 C.ar    1  UNL1        0.2541
     25 N         144.6846  142.7854  158.0524 N.ar    1  UNL1       -0.2084
     26 C         145.5093  141.8217  157.2515 C.ar    1  UNL1        0.1037
     27 C         144.9241  140.5082  156.8249 C.ar    1  UNL1        0.0415
     28 C         143.5143  140.1583  157.1992 C.ar    1  UNL1        0.1037
     29 N         142.6897  141.1218  158.0000 N.ar    1  UNL1       -0.2084
@<TRIPOS>BOND
     1     2     1    1
     2     2     3    1
     3     3     4   ar
     4     4     5   ar
     5     5     6   ar
     6     6    24    1
     7    24    25   ar
     8    25    26   ar
     9    26    27   ar
    10    27    28   ar
    11    28    29   ar
    12     6     7   ar
    13     7     8    1
    14     8     9    1
    15     9    10    1
    16    10    11   am
    17    11    12    2
    18    11    13    1
    19    13    14   ar
    20    14    15   ar
    21    15    16   ar
    22    16    17   ar
    23    17    20    1
    24    20    21    1
    25    20    22    1
    26    20    23    1
    27    17    18   ar
    28    18    19    1
    29    10     2    1
    30    18    13   ar
    31     7     3   ar
    32    29    24   ar
@<TRIPOS>MOLECULE
*****
 29 32 0 0 0
SMALL
GASTEIGER

@<TRIPOS>ATOM
      1 C         140.0582  145.6928  162.6011 C.3     1  UNL1        0.0282
      2 C         140.8329  144.4794  162.1797 C.3     1  UNL1        0.1189
      3 C         141.4492  144.4200  160.8135 C.ar    1  UNL1        0.1138
      4 N         141.4612  145.3962  159.6746 N.ar    1  UNL1       -0.1315
      5 N         142.2433  144.7860  158.5494 N.ar    1  UNL1       -0.0576
      6 N         142.7147  143.4327  158.9929 N.ar    1  UNL1       -0.1813
      7 C         142.2238  143.2066  160.3922 C.ar    1  UNL1        0.0837
      8 C         142.3822  142.0525  161.3371 C.3     1  UNL1        0.0688
      9 C         141.7659  142.1118  162.7034 C.3     1  UNL1        0.1004
     10 N         140.9913  143.3252  163.1246 N.am    1  UNL1       -0.2719
     11 C         140.3750  143.3845  164.4910 C.2     1  UNL1        0.2501
     12 O         139.6003  144.5980  164.9123 O.2     1  UNL1       -0.2699
     13 C         140.5333  142.2304  165.4359 C.ar    1  UNL1        0.0641
     14 C         141.7903  142.0881  166.2421 C.ar    1  UNL1        0.0054
     15 C         141.9485  140.9340  167.1870 C.ar    1  UNL1        0.0001
     16 C         140.8500  139.9222  167.3258 C.ar    1  UNL1        0.0047
     17 C         139.5930  140.0645  166.5197 C.ar    1  UNL1        0.0821
     18 C         139.4347  141.2186  165.5747 C.ar    1  UNL1        0.0659
     19 CL        138.1777  141.3608  164.7686 Cl      1  UNL1       -0.0822
     20 C         138.4944  139.0526  166.6585 C.3     1  UNL1        0.4194
     21 F         137.3958  138.0407  166.7973 F       1  UNL1       -0.1658
     22 F         138.7866  138.5459  165.2772 F       1  UNL1       -0.1658
     23 F         138.2022  139.5593  168.0397 F       1  UNL1       -0.1658
     24 C         143.5331  142.4741  158.1798 C.ar    1  UNL1        0.2541
     25 N         144.9514  142.8110  157.8266 N.ar    1  UNL1       -0.2084
     26 C         145.7699  141.8523  157.0135 C.ar    1  UNL1        0.1037
     27 C         145.1700  140.5567  156.5537 C.ar    1  UNL1        0.0415
     28 C         143.7516  140.2198  156.9070 C.ar    1  UNL1        0.1037
     29 N         142.9332  141.1784  157.7200 N.ar    1  UNL1       -0.2084
@<TRIPOS>BOND
     1     2     1    1
     2     2     3    1
     3     3     4   ar
     4     4     5   ar
     5     5     6   ar
     6     6    24    1
     7    24    25   ar
     8    25    26   ar
     9    26    27   ar
    10    27    28   ar
    11    28    29   ar
    12     6     7   ar
    13     7     8    1
    14     8     9    1
    15     9    10    1
    16    10    11   am
    17    11    12    2
    18    11    13    1
    19    13    14   ar
    20    14    15   ar
    21    15    16   ar
    22    16    17   ar
    23    17    20    1
    24    20    21    1
    25    20    22    1
    26    20    23    1
    27    17    18   ar
    28    18    19    1
    29    10     2    1
    30    18    13   ar
    31     7     3   ar
    32    29    24   ar
@<TRIPOS>MOLECULE
*****
 29 32 0 0 0
SMALL
GASTEIGER

@<TRIPOS>ATOM
      1 C         138.0108  138.0949  162.0067 C.3     1  UNL1        0.0282
      2 C         138.9739  139.2411  161.9135 C.3     1  UNL1        0.1189
      3 C         138.9510  140.1447  160.7164 C.ar    1  UNL1        0.1138
      4 N         138.0993  140.1533  159.4816 N.ar    1  UNL1       -0.1315
      5 N         138.5361  141.3049  158.6254 N.ar    1  UNL1       -0.0576
      6 N         139.6576  142.0079  159.3310 N.ar    1  UNL1       -0.1813
      7 C         139.9140  141.2909  160.6233 C.ar    1  UNL1        0.0837
      8 C         140.9001  141.5336  161.7273 C.3     1  UNL1        0.0688
      9 C         140.9230  140.6300  162.9244 C.3     1  UNL1        0.1004
     10 N         139.9599  139.4839  163.0175 N.am    1  UNL1       -0.2719
     11 C         139.9829  138.5803  164.2147 C.2     1  UNL1        0.2501
     12 O         139.0198  137.4341  164.3078 O.2     1  UNL1       -0.2699
     13 C         140.9689  138.8230  165.3188 C.ar    1  UNL1        0.0641
     14 C         142.3412  138.2221  165.2442 C.ar    1  UNL1        0.0054
     15 C         143.3272  138.4648  166.3483 C.ar    1  UNL1        0.0001
     16 C         142.9409  139.3084  167.5268 C.ar    1  UNL1        0.0047
     17 C         141.5685  139.9093  167.6014 C.ar    1  UNL1        0.0821
     18 C         140.5825  139.6666  166.4973 C.ar    1  UNL1        0.0659
     19 CL        139.2101  140.2675  166.5719 Cl      1  UNL1       -0.0822
     20 C         141.1821  140.7529  168.7800 C.3     1  UNL1        0.4194
     21 F         140.7958  141.5965  169.9586 F       1  UNL1       -0.1658
     22 F         141.6766  141.9762  168.0665 F       1  UNL1       -0.1658
     23 F         140.6877  139.5296  169.4935 F       1  UNL1       -0.1658
     24 C         140.3936  143.2159  158.8319 C.ar    1  UNL1        0.2541
     25 N         139.6789  144.5281  158.7002 N.ar    1  UNL1       -0.2084
     26 C         140.4148  145.7362  158.2010 C.ar    1  UNL1        0.1037
     27 C         141.8653  145.6321  157.8336 C.ar    1  UNL1        0.0415
     28 C         142.5799  144.3198  157.9653 C.ar    1  UNL1        0.1037
     29 N         141.8441  143.1118  158.4644 N.ar    1  UNL1       -0.2084
@<TRIPOS>BOND
     1     2     1    1
     2     2     3    1
     3     3     4   ar
     4     4     5   ar
     5     5     6   ar
     6     6    24    1
     7    24    25   ar
     8    25    26   ar
     9    26    27   ar
    10    27    28   ar
    11    28    29   ar
    12     6     7   ar
    13     7     8    1
    14     8     9    1
    15     9    10    1
    16    10    11   am
    17    11    12    2
    18    11    13    1
    19    13    14   ar
    20    14    15   ar
    21    15    16   ar
    22    16    17   ar
    23    17    20    1
    24    20    21    1
    25    20    22    1
    26    20    23    1
    27    17    18   ar
    28    18    19    1
    29    10     2    1
    30    18    13   ar
    31     7     3   ar
    32    29    24   ar
@<TRIPOS>MOLECULE
*****
 29 32 0 0 0
SMALL
GASTEIGER

@<TRIPOS>ATOM
      1 C         143.7619  137.8467  160.9996 C.3     1  UNL1        0.0282
      2 C         142.3943  138.1227  160.4487 C.3     1  UNL1        0.1189
      3 C         142.1487  138.0342  158.9716 C.ar    1  UNL1        0.1138
      4 N         143.0527  137.7001  157.8222 N.ar    1  UNL1       -0.1315
      5 N         142.2437  137.7697  156.5610 N.ar    1  UNL1       -0.0576
      6 N         140.8398  138.1468  156.9309 N.ar    1  UNL1       -0.1813
      7 C         140.7811  138.3103  158.4208 C.ar    1  UNL1        0.0837
      8 C         139.6590  138.6749  159.3471 C.3     1  UNL1        0.0688
      9 C         139.9046  138.7634  160.8242 C.3     1  UNL1        0.1004
     10 N         141.2721  138.4873  161.3750 N.am    1  UNL1       -0.2719
     11 C         141.5177  138.5759  162.8522 C.2     1  UNL1        0.2501
     12 O         142.8853  138.2998  163.4030 O.2     1  UNL1       -0.2699
     13 C         140.3956  138.9405  163.7785 C.ar    1  UNL1        0.0641
     14 C         139.7293  137.8795  164.6034 C.ar    1  UNL1        0.0054
     15 C         138.6072  138.2442  165.5297 C.ar    1  UNL1        0.0001
     16 C         138.1515  139.6696  165.6311 C.ar    1  UNL1        0.0047
     17 C         138.8179  140.7306  164.8062 C.ar    1  UNL1        0.0821
     18 C         139.9400  140.3660  163.8799 C.ar    1  UNL1        0.0659
     19 CL        140.6063  141.4269  163.0550 Cl      1  UNL1       -0.0822
     20 C         138.3622  142.1561  164.9076 C.3     1  UNL1        0.4194
     21 F         137.9065  143.5816  165.0090 F       1  UNL1       -0.1658
     22 F         139.4383  142.4283  165.9165 F       1  UNL1       -0.1658
     23 F         137.2861  141.8839  163.8987 F       1  UNL1       -0.1658
     24 C         139.6955  138.3285  155.9782 C.ar    1  UNL1        0.2541
     25 N         138.9965  139.6527  155.8896 N.ar    1  UNL1       -0.2084
     26 C         137.8521  139.8344  154.9369 C.ar    1  UNL1        0.1037
     27 C         137.4069  138.6920  154.0729 C.ar    1  UNL1        0.0415
     28 C         138.1060  137.3678  154.1616 C.ar    1  UNL1        0.1037
     29 N         139.2503  137.1860  155.1142 N.ar    1  UNL1       -0.2084
@<TRIPOS>BOND
     1     2     1    1
     2     2     3    1
     3     3     4   ar
     4     4     5   ar
     5     5     6   ar
     6     6    24    1
     7    24    25   ar
     8    25    26   ar
     9    26    27   ar
    10    27    28   ar
    11    28    29   ar
    12     6     7   ar
    13     7     8    1
    14     8     9    1
    15     9    10    1
    16    10    11   am
    17    11    12    2
    18    11    13    1
    19    13    14   ar
    20    14    15   ar
    21    15    16   ar
    22    16    17   ar
    23    17    20    1
    24    20    21    1
    25    20    22    1
    26    20    23    1
    27    17    18   ar
    28    18    19    1
    29    10     2    1
    30    18    13   ar
    31     7     3   ar
    32    29    24   ar
@<TRIPOS>MOLECULE
*****
 29 32 0 0 0
SMALL
GASTEIGER

@<TRIPOS>ATOM
      1 C         143.6073  141.7967  159.4597 C.3     1  UNL1        0.0282
      2 C         143.2974  140.3328  159.5641 C.3     1  UNL1        0.1189
      3 C         143.2235  139.4915  158.3244 C.ar    1  UNL1        0.1138
      4 N         143.4082  139.8239  156.8734 N.ar    1  UNL1       -0.1315
      5 N         143.2125  138.5654  156.0811 N.ar    1  UNL1       -0.0576
      6 N         142.9068  137.4552  157.0423 N.ar    1  UNL1       -0.1813
      7 C         142.9136  138.0276  158.4288 C.ar    1  UNL1        0.0837
      8 C         142.6776  137.4049  159.7729 C.3     1  UNL1        0.0688
      9 C         142.7516  138.2462  161.0126 C.3     1  UNL1        0.1004
     10 N         143.0614  139.7100  160.9082 N.am    1  UNL1       -0.2719
     11 C         143.1354  140.5513  162.1479 C.2     1  UNL1        0.2501
     12 O         143.4453  142.0152  162.0435 O.2     1  UNL1       -0.2699
     13 C         142.8994  139.9287  163.4920 C.ar    1  UNL1        0.0641
     14 C         144.0571  139.4071  164.2906 C.ar    1  UNL1        0.0054
     15 C         143.8211  138.7844  165.6348 C.ar    1  UNL1        0.0001
     16 C         142.4275  138.6833  166.1802 C.ar    1  UNL1        0.0047
     17 C         141.2698  139.2049  165.3816 C.ar    1  UNL1        0.0821
     18 C         141.5057  139.8276  164.0375 C.ar    1  UNL1        0.0659
     19 CL        140.3480  140.3491  163.2389 Cl      1  UNL1       -0.0822
     20 C         139.8761  139.1038  165.9271 C.3     1  UNL1        0.4194
     21 F         138.4825  139.0027  166.4726 F       1  UNL1       -0.1658
     22 F         140.0397  140.4382  166.5923 F       1  UNL1       -0.1658
     23 F         139.7125  137.7694  165.2618 F       1  UNL1       -0.1658
     24 C         142.6410  136.0239  156.6806 C.ar    1  UNL1        0.2541
     25 N         143.4002  134.9246  157.3626 N.ar    1  UNL1       -0.2084
     26 C         143.1344  133.4932  157.0009 C.ar    1  UNL1        0.1037
     27 C         142.1095  133.1614  155.9573 C.ar    1  UNL1        0.0415
     28 C         141.3502  134.2608  155.2753 C.ar    1  UNL1        0.1037
     29 N         141.6160  135.6920  155.6370 N.ar    1  UNL1       -0.2084
@<TRIPOS>BOND
     1     2     1    1
     2     2     3    1
     3     3     4   ar
     4     4     5   ar
     5     5     6   ar
     6     6    24    1
     7    24    25   ar
     8    25    26   ar
     9    26    27   ar
    10    27    28   ar
    11    28    29   ar
    12     6     7   ar
    13     7     8    1
    14     8     9    1
    15     9    10    1
    16    10    11   am
    17    11    12    2
    18    11    13    1
    19    13    14   ar
    20    14    15   ar
    21    15    16   ar
    22    16    17   ar
    23    17    20    1
    24    20    21    1
    25    20    22    1
    26    20    23    1
    27    17    18   ar
    28    18    19    1
    29    10     2    1
    30    18    13   ar
    31     7     3   ar
    32    29    24   ar
@<TRIPOS>MOLECULE
*****
 29 32 0 0 0
SMALL
GASTEIGER

@<TRIPOS>ATOM
      1 C         138.9846  144.9045  164.9748 C.3     1  UNL1        0.0282
      2 C         139.7886  144.3771  163.8235 C.3     1  UNL1        0.1189
      3 C         139.7842  145.1028  162.5107 C.ar    1  UNL1        0.1138
      4 N         139.0894  146.3524  162.0571 N.ar    1  UNL1       -0.1315
      5 N         139.4640  146.5972  160.6254 N.ar    1  UNL1       -0.0576
      6 N         140.3903  145.4989  160.1942 N.ar    1  UNL1       -0.1813
      7 C         140.5882  144.5753  161.3595 C.ar    1  UNL1        0.0837
      8 C         141.3966  143.3222  161.5210 C.3     1  UNL1        0.0688
      9 C         141.4010  142.5965  162.8337 C.3     1  UNL1        0.1004
     10 N         140.5970  143.1239  163.9849 N.am    1  UNL1       -0.2719
     11 C         140.6015  142.3981  165.2978 C.2     1  UNL1        0.2501
     12 O         139.7975  142.9256  166.4490 O.2     1  UNL1       -0.2699
     13 C         141.4099  141.1450  165.4592 C.ar    1  UNL1        0.0641
     14 C         142.6379  141.1505  166.3205 C.ar    1  UNL1        0.0054
     15 C         143.4463  139.8973  166.4819 C.ar    1  UNL1        0.0001
     16 C         143.0267  138.6387  165.7822 C.ar    1  UNL1        0.0047
     17 C         141.7985  138.6332  164.9209 C.ar    1  UNL1        0.0821
     18 C         140.9901  139.8864  164.7594 C.ar    1  UNL1        0.0659
     19 CL        139.7620  139.8808  163.8982 Cl      1  UNL1       -0.0822
     20 C         141.3788  137.3745  164.2212 C.3     1  UNL1        0.4194
     21 F         140.9592  136.1159  163.5214 F       1  UNL1       -0.1658
     22 F         140.3103  137.1581  165.2514 F       1  UNL1       -0.1658
     23 F         142.4474  137.5910  163.1909 F       1  UNL1       -0.1658
     24 C         141.0099  145.3504  158.8363 C.ar    1  UNL1        0.2541
     25 N         142.2497  144.5239  158.6640 N.ar    1  UNL1       -0.2084
     26 C         142.8693  144.3753  157.3060 C.ar    1  UNL1        0.1037
     27 C         142.2492  145.0533  156.1204 C.ar    1  UNL1        0.0415
     28 C         141.0093  145.8799  156.2928 C.ar    1  UNL1        0.1037
     29 N         140.3897  146.0284  157.6507 N.ar    1  UNL1       -0.2084
@<TRIPOS>BOND
     1     2     1    1
     2     2     3    1
     3     3     4   ar
     4     4     5   ar
     5     5     6   ar
     6     6    24    1
     7    24    25   ar
     8    25    26   ar
     9    26    27   ar
    10    27    28   ar
    11    28    29   ar
    12     6     7   ar
    13     7     8    1
    14     8     9    1
    15     9    10    1
    16    10    11   am
    17    11    12    2
    18    11    13    1
    19    13    14   ar
    20    14    15   ar
    21    15    16   ar
    22    16    17   ar
    23    17    20    1
    24    20    21    1
    25    20    22    1
    26    20    23    1
    27    17    18   ar
    28    18    19    1
    29    10     2    1
    30    18    13   ar
    31     7     3   ar
    32    29    24   ar
@<TRIPOS>MOLECULE
*****
 29 32 0 0 0
SMALL
GASTEIGER

@<TRIPOS>ATOM
      1 C         143.9455  141.9450  159.0867 C.3     1  UNL1        0.0282
      2 C         143.3937  140.5556  159.2103 C.3     1  UNL1        0.1189
      3 C         143.5121  139.5967  158.0629 C.ar    1  UNL1        0.1138
      4 N         144.1156  139.7360  156.6967 N.ar    1  UNL1       -0.1315
      5 N         143.9368  138.4326  155.9761 N.ar    1  UNL1       -0.0576
      6 N         143.2228  137.4879  156.8968 N.ar    1  UNL1       -0.1813
      7 C         142.9603  138.2074  158.1865 C.ar    1  UNL1        0.0837
      8 C         142.2901  137.7770  159.4576 C.3     1  UNL1        0.0688
      9 C         142.1717  138.7359  160.6049 C.3     1  UNL1        0.1004
     10 N         142.7234  140.1251  160.4813 N.am    1  UNL1       -0.2719
     11 C         142.6050  141.0840  161.6288 C.2     1  UNL1        0.2501
     12 O         143.1568  142.4734  161.5051 O.2     1  UNL1       -0.2699
     13 C         141.9348  140.6536  162.8998 C.ar    1  UNL1        0.0641
     14 C         140.4717  140.9149  163.1019 C.ar    1  UNL1        0.0054
     15 C         139.8015  140.4844  164.3730 C.ar    1  UNL1        0.0001
     16 C         140.5944  139.7927  165.4419 C.ar    1  UNL1        0.0047
     17 C         142.0577  139.5314  165.2398 C.ar    1  UNL1        0.0821
     18 C         142.7279  139.9618  163.9688 C.ar    1  UNL1        0.0659
     19 CL        144.1910  139.7005  163.7667 Cl      1  UNL1       -0.0822
     20 C         142.8506  138.8396  166.3088 C.3     1  UNL1        0.4194
     21 F         143.6436  138.1479  167.3777 F       1  UNL1       -0.1658
     22 F         143.0075  140.1424  167.0355 F       1  UNL1       -0.1658
     23 F         142.6938  137.5368  165.5820 F       1  UNL1       -0.1658
     24 C         142.8387  136.0723  156.5829 C.ar    1  UNL1        0.2541
     25 N         143.4197  134.9430  157.3810 N.ar    1  UNL1       -0.2084
     26 C         143.0356  133.5273  157.0671 C.ar    1  UNL1        0.1037
     27 C         142.0707  133.2411  155.9551 C.ar    1  UNL1        0.0415
     28 C         141.4897  134.3705  155.1569 C.ar    1  UNL1        0.1037
     29 N         141.8737  135.7860  155.4707 N.ar    1  UNL1       -0.2084
@<TRIPOS>BOND
     1     2     1    1
     2     2     3    1
     3     3     4   ar
     4     4     5   ar
     5     5     6   ar
     6     6    24    1
     7    24    25   ar
     8    25    26   ar
     9    26    27   ar
    10    27    28   ar
    11    28    29   ar
    12     6     7   ar
    13     7     8    1
    14     8     9    1
    15     9    10    1
    16    10    11   am
    17    11    12    2
    18    11    13    1
    19    13    14   ar
    20    14    15   ar
    21    15    16   ar
    22    16    17   ar
    23    17    20    1
    24    20    21    1
    25    20    22    1
    26    20    23    1
    27    17    18   ar
    28    18    19    1
    29    10     2    1
    30    18    13   ar
    31     7     3   ar
    32    29    24   ar
@<TRIPOS>MOLECULE
*****
 29 32 0 0 0
SMALL
GASTEIGER

@<TRIPOS>ATOM
      1 C         142.7922  137.7145  160.5540 C.3     1  UNL1        0.0282
      2 C         141.5238  138.4998  160.3973 C.3     1  UNL1        0.1189
      3 C         141.0784  138.9410  159.0346 C.ar    1  UNL1        0.1138
      4 N         141.6777  138.7518  157.6726 N.ar    1  UNL1       -0.1315
      5 N         140.7796  139.4200  156.6742 N.ar    1  UNL1       -0.0576
      6 N         139.6253  140.0223  157.4191 N.ar    1  UNL1       -0.1813
      7 C         139.8100  139.7263  158.8779 C.ar    1  UNL1        0.0837
      8 C         138.9870  140.0703  160.0839 C.3     1  UNL1        0.0688
      9 C         139.4325  139.6290  161.4466 C.3     1  UNL1        0.1004
     10 N         140.7008  138.8438  161.6033 N.am    1  UNL1       -0.2719
     11 C         141.1462  138.4025  162.9660 C.2     1  UNL1        0.2501
     12 O         142.4146  137.6173  163.1227 O.2     1  UNL1       -0.2699
     13 C         140.3233  138.7465  164.1720 C.ar    1  UNL1        0.0641
     14 C         139.2101  137.8388  164.6041 C.ar    1  UNL1        0.0054
     15 C         138.3871  138.1828  165.8101 C.ar    1  UNL1        0.0001
     16 C         138.6774  139.4345  166.5839 C.ar    1  UNL1        0.0047
     17 C         139.7906  140.3423  166.1518 C.ar    1  UNL1        0.0821
     18 C         140.6136  139.9984  164.9458 C.ar    1  UNL1        0.0659
     19 CL        141.7268  140.9061  164.5137 Cl      1  UNL1       -0.0822
     20 C         140.0809  141.5941  166.9257 C.3     1  UNL1        0.4194
     21 F         140.3711  142.8459  167.6995 F       1  UNL1       -0.1658
     22 F         139.3544  142.4019  165.8914 F       1  UNL1       -0.1658
     23 F         140.8073  140.7863  167.9599 F       1  UNL1       -0.1658
     24 C         138.4864  140.7865  156.8117 C.ar    1  UNL1        0.2541
     25 N         137.0880  140.2528  156.9103 N.ar    1  UNL1       -0.2084
     26 C         135.9490  141.0169  156.3029 C.ar    1  UNL1        0.1037
     27 C         136.2084  142.3147  155.5971 C.ar    1  UNL1        0.0415
     28 C         137.6069  142.8484  155.4986 C.ar    1  UNL1        0.1037
     29 N         138.7458  142.0844  156.1059 N.ar    1  UNL1       -0.2084
@<TRIPOS>BOND
     1     2     1    1
     2     2     3    1
     3     3     4   ar
     4     4     5   ar
     5     5     6   ar
     6     6    24    1
     7    24    25   ar
     8    25    26   ar
     9    26    27   ar
    10    27    28   ar
    11    28    29   ar
    12     6     7   ar
    13     7     8    1
    14     8     9    1
    15     9    10    1
    16    10    11   am
    17    11    12    2
    18    11    13    1
    19    13    14   ar
    20    14    15   ar
    21    15    16   ar
    22    16    17   ar
    23    17    20    1
    24    20    21    1
    25    20    22    1
    26    20    23    1
    27    17    18   ar
    28    18    19    1
    29    10     2    1
    30    18    13   ar
    31     7     3   ar
    32    29    24   ar
