@<TRIPOS>MOLECULE
*****
 34 38 0 0 0
SMALL
GASTEIGER

@<TRIPOS>ATOM
      1 C         139.7424  138.9674  164.7592 C.3     1  UNL1        0.0350
      2 C         140.2583  137.5590  164.7444 C.3     1  UNL1        0.0072
      3 C         139.2988  138.0174  163.6865 C.3     1  UNL1        0.0214
      4 C         138.3516  138.7489  162.7823 C.3     1  UNL1        0.0724
      5 N         138.2098  140.1510  163.2961 N.3     1  UNL1       -0.2724
      6 C         139.0694  140.2861  164.5179 C.3     1  UNL1        0.0761
      7 C         141.9977  140.2559  168.4339 C.ar    1  UNL1        0.1426
      8 C         142.7052  139.5068  167.3439 C.ar    1  UNL1        0.0365
      9 C         141.9535  139.0773  166.1190 C.ar    1  UNL1       -0.0011
     10 C         140.4942  139.3969  165.9841 C.ar    1  UNL1       -0.0213
     11 C         139.7866  140.1460  167.0741 C.ar    1  UNL1        0.0027
     12 C         140.5384  140.5755  168.2990 C.ar    1  UNL1        0.1050
     13 C         139.8308  141.3247  169.3890 C.3     1  UNL1        0.4214
     14 F         139.1232  142.0738  170.4790 F       1  UNL1       -0.1657
     15 F         140.3047  142.6224  168.8048 F       1  UNL1       -0.1657
     16 F         139.3569  140.0270  169.9733 F       1  UNL1       -0.1657
     17 C         143.5055  141.9809  169.6590 C.3     1  UNL1        0.2525
     18 O         142.7495  140.6854  169.6588 O.3     1  UNL1       -0.4715
     19 C         137.3580  141.2288  162.6938 C.3     1  UNL1        0.0730
     20 C         137.9821  142.5200  162.2539 C.3     1  UNL1        0.0294
     21 C         137.7202  143.7802  163.0241 C.3     1  UNL1        0.0666
     22 S         138.8665  144.5671  163.5869 S.3     1  UNL1       -0.0756
     23 C         140.0726  143.8555  164.1246 C.ar    1  UNL1        0.1933
     24 N         140.3188  143.4998  165.5608 N.ar    1  UNL1       -0.1220
     25 N         141.6425  142.7992  165.6444 N.ar    1  UNL1       -0.1250
     26 C         142.2143  142.7219  164.2598 C.ar    1  UNL1        0.2029
     27 N         141.2440  143.3747  163.3205 N.ar    1  UNL1       -0.2860
     28 C         141.4151  143.5211  161.8375 C.3     1  UNL1        0.1341
     29 C         143.5261  142.1008  163.8810 C.ar    1  UNL1        0.1964
     30 O         144.8856  142.6357  164.2208 O.2     1  UNL1       -0.4283
     31 C         145.9085  141.7013  163.6457 C.ar    1  UNL1        0.2849
     32 N         145.1810  140.5889  162.9505 N.ar    1  UNL1       -0.2085
     33 C         143.7086  140.8358  163.0959 C.ar    1  UNL1        0.1001
     34 C         142.6114  139.9697  162.5517 C.3     1  UNL1        0.0556
@<TRIPOS>BOND
     1    17    18    1
     2    18     7    1
     3     7     8   ar
     4     8     9   ar
     5     9    10   ar
     6    10     1    1
     7     1     2    1
     8     2     3    1
     9     3     4    1
    10     4     5    1
    11     5    19    1
    12    19    20    1
    13    20    21    1
    14    21    22    1
    15    22    23    1
    16    23    24   ar
    17    24    25   ar
    18    25    26   ar
    19    26    29    1
    20    29    30   ar
    21    30    31   ar
    22    31    32   ar
    23    32    33   ar
    24    33    34    1
    25    26    27   ar
    26    27    28    1
    27     5     6    1
    28    10    11   ar
    29    11    12   ar
    30    12    13    1
    31    13    14    1
    32    13    15    1
    33    13    16    1
    34    12     7   ar
    35     3     1    1
    36    27    23   ar
    37     6     1    1
    38    33    29   ar
@<TRIPOS>MOLECULE
*****
 34 38 0 0 0
SMALL
GASTEIGER

@<TRIPOS>ATOM
      1 C         144.1602  141.6601  164.0288 C.3     1  UNL1        0.0350
      2 C         145.4278  140.8618  164.1065 C.3     1  UNL1        0.0072
      3 C         145.1885  141.7779  162.9432 C.3     1  UNL1        0.0214
      4 C         144.6789  142.7557  161.9262 C.3     1  UNL1        0.0724
      5 N         143.3356  143.2422  162.3833 N.3     1  UNL1       -0.2724
      6 C         143.0151  142.5651  163.6828 C.3     1  UNL1        0.0761
      7 C         142.4035  140.1294  167.8786 C.ar    1  UNL1        0.1426
      8 C         142.5941  139.1978  166.7186 C.ar    1  UNL1        0.0365
      9 C         143.1797  139.7081  165.4353 C.ar    1  UNL1       -0.0011
     10 C         143.5746  141.1499  165.3121 C.ar    1  UNL1       -0.0213
     11 C         143.3840  142.0814  166.4722 C.ar    1  UNL1        0.0027
     12 C         142.7984  141.5712  167.7554 C.ar    1  UNL1        0.1050
     13 C         142.6078  142.5028  168.9155 C.3     1  UNL1        0.4214
     14 F         142.4172  143.4344  170.0756 F       1  UNL1       -0.1657
     15 F         143.9945  142.1903  169.3944 F       1  UNL1       -0.1657
     16 F         141.2211  142.8154  168.4367 F       1  UNL1       -0.1657
     17 C         142.6504  138.7791  170.0844 C.3     1  UNL1        0.2525
     18 O         141.8179  139.6192  169.1619 O.3     1  UNL1       -0.4715
     19 C         142.4657  144.2320  161.6668 C.3     1  UNL1        0.0730
     20 C         141.5407  145.1195  162.4458 C.3     1  UNL1        0.0294
     21 C         140.1711  145.4247  161.9158 C.3     1  UNL1        0.0666
     22 S         138.9572  145.0384  162.7078 S.3     1  UNL1       -0.0756
     23 C         138.5307  143.6017  162.7740 C.ar    1  UNL1        0.1933
     24 N         137.6615  142.8934  161.7777 N.ar    1  UNL1       -0.1220
     25 N         137.4921  141.4752  162.2361 N.ar    1  UNL1       -0.1250
     26 C         138.2567  141.3071  163.5156 C.ar    1  UNL1        0.2029
     27 N         138.8986  142.6214  163.8480 N.ar    1  UNL1       -0.2860
     28 C         139.7575  142.9055  165.0445 C.3     1  UNL1        0.1341
     29 C         138.3610  140.0462  164.3212 C.ar    1  UNL1        0.1964
     30 O         137.8809  139.8576  165.7297 O.2     1  UNL1       -0.4283
     31 C         138.1870  138.4472  166.1389 C.ar    1  UNL1        0.2849
     32 N         138.8562  137.7643  164.9832 N.ar    1  UNL1       -0.2085
     33 C         138.9638  138.7524  163.8599 C.ar    1  UNL1        0.1001
     34 C         139.5681  138.4925  162.5117 C.3     1  UNL1        0.0556
@<TRIPOS>BOND
     1    17    18    1
     2    18     7    1
     3     7     8   ar
     4     8     9   ar
     5     9    10   ar
     6    10     1    1
     7     1     2    1
     8     2     3    1
     9     3     4    1
    10     4     5    1
    11     5    19    1
    12    19    20    1
    13    20    21    1
    14    21    22    1
    15    22    23    1
    16    23    24   ar
    17    24    25   ar
    18    25    26   ar
    19    26    29    1
    20    29    30   ar
    21    30    31   ar
    22    31    32   ar
    23    32    33   ar
    24    33    34    1
    25    26    27   ar
    26    27    28    1
    27     5     6    1
    28    10    11   ar
    29    11    12   ar
    30    12    13    1
    31    13    14    1
    32    13    15    1
    33    13    16    1
    34    12     7   ar
    35     3     1    1
    36    27    23   ar
    37     6     1    1
    38    33    29   ar
@<TRIPOS>MOLECULE
*****
 34 38 0 0 0
SMALL
GASTEIGER

@<TRIPOS>ATOM
      1 C         141.9357  140.6777  167.7044 C.3     1  UNL1        0.0350
      2 C         142.9089  141.0542  168.7820 C.3     1  UNL1        0.0072
      3 C         141.5615  140.5049  169.1467 C.3     1  UNL1        0.0214
      4 C         140.1717  139.9432  169.2009 C.3     1  UNL1        0.0724
      5 N         139.6869  139.7688  167.7921 N.3     1  UNL1       -0.2724
      6 C         140.7771  140.2228  166.8673 C.3     1  UNL1        0.0761
      7 C         144.5959  141.8035  164.2539 C.ar    1  UNL1        0.1426
      8 C         144.4559  140.3648  164.6547 C.ar    1  UNL1        0.0365
      9 C         143.5691  139.9896  165.8049 C.ar    1  UNL1       -0.0011
     10 C         142.8224  141.0530  166.5543 C.ar    1  UNL1       -0.0213
     11 C         142.9624  142.4916  166.1535 C.ar    1  UNL1        0.0027
     12 C         143.8492  142.8668  165.0033 C.ar    1  UNL1        0.1050
     13 C         143.9892  144.3056  164.6025 C.3     1  UNL1        0.4214
     14 F         144.1292  145.7442  164.2018 F       1  UNL1       -0.1657
     15 F         144.9938  144.5126  165.6969 F       1  UNL1       -0.1657
     16 F         142.9845  144.0985  163.5081 F       1  UNL1       -0.1657
     17 C         144.9667  142.0878  161.6983 C.3     1  UNL1        0.2525
     18 O         145.4826  142.1787  163.1038 O.3     1  UNL1       -0.4715
     19 C         138.3472  139.2344  167.3805 C.3     1  UNL1        0.0730
     20 C         137.9659  139.2023  165.9302 C.3     1  UNL1        0.0294
     21 C         138.6579  138.2570  164.9935 C.3     1  UNL1        0.0666
     22 S         139.0655  138.7200  163.6263 S.3     1  UNL1       -0.0756
     23 C         138.6806  140.0904  163.1527 C.ar    1  UNL1        0.1933
     24 N         137.2891  140.5581  162.8447 N.ar    1  UNL1       -0.1220
     25 N         137.3681  141.9903  162.4056 N.ar    1  UNL1       -0.1250
     26 C         138.8084  142.4075  162.4423 C.ar    1  UNL1        0.2029
     27 N         139.6196  141.2333  162.9040 N.ar    1  UNL1       -0.2860
     28 C         141.1084  141.2068  163.0852 C.3     1  UNL1        0.1341
     29 C         139.3436  143.7613  162.0807 C.ar    1  UNL1        0.1964
     30 O         139.5460  144.2869  160.6905 O.2     1  UNL1       -0.4283
     31 C         140.0979  145.6777  160.7964 C.ar    1  UNL1        0.2849
     32 N         140.2366  146.0116  162.2521 N.ar    1  UNL1       -0.2085
     33 C         139.7704  144.8273  163.0459 C.ar    1  UNL1        0.1001
     34 C         139.7370  144.7266  164.5422 C.3     1  UNL1        0.0556
@<TRIPOS>BOND
     1    17    18    1
     2    18     7    1
     3     7     8   ar
     4     8     9   ar
     5     9    10   ar
     6    10     1    1
     7     1     2    1
     8     2     3    1
     9     3     4    1
    10     4     5    1
    11     5    19    1
    12    19    20    1
    13    20    21    1
    14    21    22    1
    15    22    23    1
    16    23    24   ar
    17    24    25   ar
    18    25    26   ar
    19    26    29    1
    20    29    30   ar
    21    30    31   ar
    22    31    32   ar
    23    32    33   ar
    24    33    34    1
    25    26    27   ar
    26    27    28    1
    27     5     6    1
    28    10    11   ar
    29    11    12   ar
    30    12    13    1
    31    13    14    1
    32    13    15    1
    33    13    16    1
    34    12     7   ar
    35     3     1    1
    36    27    23   ar
    37     6     1    1
    38    33    29   ar
@<TRIPOS>MOLECULE
*****
 34 38 0 0 0
SMALL
GASTEIGER

@<TRIPOS>ATOM
      1 C         140.0595  141.8991  166.5666 C.3     1  UNL1        0.0350
      2 C         140.6420  142.6860  167.7031 C.3     1  UNL1        0.0072
      3 C         140.1813  141.2759  167.9256 C.3     1  UNL1        0.0214
      4 C         139.6461  139.8771  167.8437 C.3     1  UNL1        0.0724
      5 N         139.1936  139.6357  166.4341 N.3     1  UNL1       -0.2724
      6 C         139.4491  140.8853  165.6448 C.3     1  UNL1        0.0761
      7 C         140.4609  145.1547  163.4860 C.ar    1  UNL1        0.1426
      8 C         139.1185  144.8447  164.0791 C.ar    1  UNL1        0.0365
      9 C         138.9847  143.7595  165.1060 C.ar    1  UNL1       -0.0011
     10 C         140.1933  142.9843  165.5398 C.ar    1  UNL1       -0.0213
     11 C         141.5357  143.2942  164.9466 C.ar    1  UNL1        0.0027
     12 C         141.6695  144.3794  163.9197 C.ar    1  UNL1        0.1050
     13 C         143.0120  144.6893  163.3266 C.3     1  UNL1        0.4214
     14 F         144.3544  144.9993  162.7335 F       1  UNL1       -0.1657
     15 F         143.4770  145.2133  164.6529 F       1  UNL1       -0.1657
     16 F         142.5470  144.1654  162.0003 F       1  UNL1       -0.1657
     17 C         139.6459  146.2954  161.2987 C.3     1  UNL1        0.2525
     18 O         140.5946  146.2399  162.4591 O.3     1  UNL1       -0.4715
     19 C         138.5913  138.3673  165.9064 C.3     1  UNL1        0.0730
     20 C         139.2400  137.6490  164.7605 C.3     1  UNL1        0.0294
     21 C         138.5393  137.5611  163.4372 C.3     1  UNL1        0.0666
     22 S         139.2422  137.9967  162.1858 S.3     1  UNL1       -0.0756
     23 C         140.1510  139.1898  162.2125 C.ar    1  UNL1        0.1933
     24 N         139.7637  140.6006  161.8814 N.ar    1  UNL1       -0.1220
     25 N         140.9799  141.4643  162.0393 N.ar    1  UNL1       -0.1250
     26 C         142.1187  140.5873  162.4680 C.ar    1  UNL1        0.2029
     27 N         141.6065  139.1816  162.5751 N.ar    1  UNL1       -0.2860
     28 C         142.4088  137.9788  162.9746 C.3     1  UNL1        0.1341
     29 C         143.5233  141.0371  162.7416 C.ar    1  UNL1        0.1964
     30 O         144.2169  141.0027  164.0712 O.2     1  UNL1       -0.4283
     31 C         145.6032  141.5445  163.8851 C.ar    1  UNL1        0.2849
     32 N         145.7664  141.9138  162.4404 N.ar    1  UNL1       -0.2085
     33 C         144.4810  141.6001  161.7337 C.ar    1  UNL1        0.1001
     34 C         144.2022  141.8124  160.2752 C.3     1  UNL1        0.0556
@<TRIPOS>BOND
     1    17    18    1
     2    18     7    1
     3     7     8   ar
     4     8     9   ar
     5     9    10   ar
     6    10     1    1
     7     1     2    1
     8     2     3    1
     9     3     4    1
    10     4     5    1
    11     5    19    1
    12    19    20    1
    13    20    21    1
    14    21    22    1
    15    22    23    1
    16    23    24   ar
    17    24    25   ar
    18    25    26   ar
    19    26    29    1
    20    29    30   ar
    21    30    31   ar
    22    31    32   ar
    23    32    33   ar
    24    33    34    1
    25    26    27   ar
    26    27    28    1
    27     5     6    1
    28    10    11   ar
    29    11    12   ar
    30    12    13    1
    31    13    14    1
    32    13    15    1
    33    13    16    1
    34    12     7   ar
    35     3     1    1
    36    27    23   ar
    37     6     1    1
    38    33    29   ar
@<TRIPOS>MOLECULE
*****
 34 38 0 0 0
SMALL
GASTEIGER

@<TRIPOS>ATOM
      1 C         139.6268  143.7082  164.6363 C.3     1  UNL1        0.0350
      2 C         138.2293  144.1497  164.9560 C.3     1  UNL1        0.0072
      3 C         138.9755  144.7856  163.8208 C.3     1  UNL1        0.0214
      4 C         139.9513  145.2253  162.7698 C.3     1  UNL1        0.0724
      5 N         141.2057  144.4197  162.9358 N.3     1  UNL1       -0.2724
      6 C         141.0051  143.4821  164.0894 C.3     1  UNL1        0.0761
      7 C         139.9015  140.6185  167.8963 C.ar    1  UNL1        0.1426
      8 C         140.4594  141.9932  168.1170 C.ar    1  UNL1        0.0365
      9 C         140.3679  143.0231  167.0303 C.ar    1  UNL1       -0.0011
     10 C         139.7184  142.6783  165.7230 C.ar    1  UNL1       -0.0213
     11 C         139.1605  141.3035  165.5023 C.ar    1  UNL1        0.0027
     12 C         139.2521  140.2736  166.5890 C.ar    1  UNL1        0.1050
     13 C         138.6941  138.8988  166.3683 C.3     1  UNL1        0.4214
     14 F         138.1361  137.5241  166.1476 F       1  UNL1       -0.1657
     15 F         137.4082  139.3165  167.0178 F       1  UNL1       -0.1657
     16 F         139.9800  138.4812  165.7188 F       1  UNL1       -0.1657
     17 C         139.9196  140.0074  170.4215 C.3     1  UNL1        0.2525
     18 O         139.9931  139.5886  168.9830 O.3     1  UNL1       -0.4715
     19 C         142.4433  144.5320  162.0958 C.3     1  UNL1        0.0730
     20 C         143.7695  144.1078  162.6538 C.3     1  UNL1        0.0294
     21 C         144.6920  143.2578  161.8312 C.3     1  UNL1        0.0666
     22 S         144.7565  141.7777  162.0654 S.3     1  UNL1       -0.0756
     23 C         143.5679  141.0544  162.6259 C.ar    1  UNL1        0.1933
     24 N         143.3920  140.6192  164.0506 N.ar    1  UNL1       -0.1220
     25 N         142.0620  139.9352  164.1653 N.ar    1  UNL1       -0.1250
     26 C         141.4160  139.9475  162.8116 C.ar    1  UNL1        0.2029
     27 N         142.3468  140.6392  161.8602 N.ar    1  UNL1       -0.2860
     28 C         142.0997  140.8745  160.3995 C.3     1  UNL1        0.1341
     29 C         140.0748  139.3696  162.4694 C.ar    1  UNL1        0.1964
     30 O         139.6893  137.9228  162.5591 O.2     1  UNL1       -0.4283
     31 C         138.2598  137.7960  162.1225 C.ar    1  UNL1        0.2849
     32 N         137.7619  139.1645  161.7630 N.ar    1  UNL1       -0.2085
     33 C         138.8836  140.1371  161.9773 C.ar    1  UNL1        0.1001
     34 C         138.8245  141.6172  161.7411 C.3     1  UNL1        0.0556
@<TRIPOS>BOND
     1    17    18    1
     2    18     7    1
     3     7     8   ar
     4     8     9   ar
     5     9    10   ar
     6    10     1    1
     7     1     2    1
     8     2     3    1
     9     3     4    1
    10     4     5    1
    11     5    19    1
    12    19    20    1
    13    20    21    1
    14    21    22    1
    15    22    23    1
    16    23    24   ar
    17    24    25   ar
    18    25    26   ar
    19    26    29    1
    20    29    30   ar
    21    30    31   ar
    22    31    32   ar
    23    32    33   ar
    24    33    34    1
    25    26    27   ar
    26    27    28    1
    27     5     6    1
    28    10    11   ar
    29    11    12   ar
    30    12    13    1
    31    13    14    1
    32    13    15    1
    33    13    16    1
    34    12     7   ar
    35     3     1    1
    36    27    23   ar
    37     6     1    1
    38    33    29   ar
@<TRIPOS>MOLECULE
*****
 34 38 0 0 0
SMALL
GASTEIGER

@<TRIPOS>ATOM
      1 C         139.4857  142.7416  164.6450 C.3     1  UNL1        0.0350
      2 C         138.0656  142.2709  164.5360 C.3     1  UNL1        0.0072
      3 C         138.6629  143.1113  163.4465 C.3     1  UNL1        0.0214
      4 C         139.5164  143.9454  162.5378 C.3     1  UNL1        0.0724
      5 N         140.8666  144.0914  163.1746 N.3     1  UNL1       -0.2724
      6 C         140.8477  143.3474  164.4770 C.3     1  UNL1        0.0761
      7 C         140.3194  140.8049  168.6204 C.ar    1  UNL1        0.1426
      8 C         139.5794  140.0479  167.5579 C.ar    1  UNL1        0.0365
      9 C         139.3015  140.6934  166.2327 C.ar    1  UNL1       -0.0011
     10 C         139.7636  142.0961  165.9701 C.ar    1  UNL1       -0.0213
     11 C         140.5037  142.8531  167.0327 C.ar    1  UNL1        0.0027
     12 C         140.7816  142.2076  168.3579 C.ar    1  UNL1        0.1050
     13 C         141.5217  142.9647  169.4205 C.3     1  UNL1        0.4214
     14 F         142.2617  143.7218  170.4830 F       1  UNL1       -0.1657
     15 F         140.2218  143.4973  169.9463 F       1  UNL1       -0.1657
     16 F         142.8216  142.4321  168.8947 F       1  UNL1       -0.1657
     17 C         141.8494  139.3569  170.1410 C.3     1  UNL1        0.2525
     18 O         140.5973  140.1594  169.9456 O.3     1  UNL1       -0.4715
     19 C         142.0313  144.8484  162.6086 C.3     1  UNL1        0.0730
     20 C         143.4185  144.5749  163.1096 C.3     1  UNL1        0.0294
     21 C         144.3759  143.7811  162.2710 C.3     1  UNL1        0.0666
     22 S         144.7650  142.3936  162.6871 S.3     1  UNL1       -0.0756
     23 C         143.7331  141.4625  163.2513 C.ar    1  UNL1        0.1933
     24 N         143.7152  140.9061  164.6442 N.ar    1  UNL1       -0.1220
     25 N         142.5090  140.0241  164.7755 N.ar    1  UNL1       -0.1250
     26 C         141.7815  140.0354  163.4638 C.ar    1  UNL1        0.2029
     27 N         142.5381  140.9244  162.5218 N.ar    1  UNL1       -0.2860
     28 C         142.1650  141.2229  161.0999 C.3     1  UNL1        0.1341
     29 C         140.5191  139.2889  163.1492 C.ar    1  UNL1        0.1964
     30 O         139.3405  139.8285  162.3945 O.2     1  UNL1       -0.4283
     31 C         138.3066  138.7447  162.3130 C.ar    1  UNL1        0.2849
     32 N         138.8463  137.5354  163.0173 N.ar    1  UNL1       -0.2085
     33 C         140.2137  137.8717  163.5342 C.ar    1  UNL1        0.1001
     34 C         141.1171  136.9521  164.3013 C.3     1  UNL1        0.0556
@<TRIPOS>BOND
     1    17    18    1
     2    18     7    1
     3     7     8   ar
     4     8     9   ar
     5     9    10   ar
     6    10     1    1
     7     1     2    1
     8     2     3    1
     9     3     4    1
    10     4     5    1
    11     5    19    1
    12    19    20    1
    13    20    21    1
    14    21    22    1
    15    22    23    1
    16    23    24   ar
    17    24    25   ar
    18    25    26   ar
    19    26    29    1
    20    29    30   ar
    21    30    31   ar
    22    31    32   ar
    23    32    33   ar
    24    33    34    1
    25    26    27   ar
    26    27    28    1
    27     5     6    1
    28    10    11   ar
    29    11    12   ar
    30    12    13    1
    31    13    14    1
    32    13    15    1
    33    13    16    1
    34    12     7   ar
    35     3     1    1
    36    27    23   ar
    37     6     1    1
    38    33    29   ar
@<TRIPOS>MOLECULE
*****
 34 38 0 0 0
SMALL
GASTEIGER

@<TRIPOS>ATOM
      1 C         139.5618  139.7626  163.2197 C.3     1  UNL1        0.0350
      2 C         138.3868  139.5506  164.1278 C.3     1  UNL1        0.0072
      3 C         139.3172  138.4131  163.8271 C.3     1  UNL1        0.0214
      4 C         140.3975  137.4878  163.3510 C.3     1  UNL1        0.0724
      5 N         141.3099  138.2654  162.4494 N.3     1  UNL1       -0.2724
      6 C         140.7933  139.6713  162.3682 C.3     1  UNL1        0.0761
      7 C         138.7490  144.1132  162.4065 C.ar    1  UNL1        0.1426
      8 C         138.9246  143.1568  161.2644 C.ar    1  UNL1        0.0365
      9 C         139.1956  141.7066  161.5355 C.ar    1  UNL1       -0.0011
     10 C         139.2908  141.2128  162.9486 C.ar    1  UNL1       -0.0213
     11 C         139.1152  142.1692  164.0907 C.ar    1  UNL1        0.0027
     12 C         138.8442  143.6194  163.8197 C.ar    1  UNL1        0.1050
     13 C         138.6686  144.5758  164.9619 C.3     1  UNL1        0.4214
     14 F         138.4930  145.5321  166.1040 F       1  UNL1       -0.1657
     15 F         140.1185  144.9492  164.8721 F       1  UNL1       -0.1657
     16 F         137.2186  144.2024  165.0516 F       1  UNL1       -0.1657
     17 C         139.5908  146.4630  161.6856 C.3     1  UNL1        0.2525
     18 O         138.4780  145.5634  162.1355 O.3     1  UNL1       -0.4715
     19 C         142.5253  137.7310  161.7515 C.3     1  UNL1        0.0730
     20 C         143.8928  138.1670  162.1873 C.3     1  UNL1        0.0294
     21 C         144.0521  139.3796  163.0557 C.3     1  UNL1        0.0666
     22 S         143.7662  139.2924  164.5255 S.3     1  UNL1       -0.0756
     23 C         143.1841  140.4713  165.2477 C.ar    1  UNL1        0.1933
     24 N         142.9460  141.8326  164.6647 N.ar    1  UNL1       -0.1220
     25 N         142.3525  142.6984  165.7363 N.ar    1  UNL1       -0.1250
     26 C         142.2239  141.8721  166.9815 C.ar    1  UNL1        0.2029
     27 N         142.7378  140.4956  166.6796 N.ar    1  UNL1       -0.2860
     28 C         142.7954  139.3455  167.6407 C.3     1  UNL1        0.1341
     29 C         141.6773  142.3401  168.2977 C.ar    1  UNL1        0.1964
     30 O         140.2431  142.6673  168.5905 O.2     1  UNL1       -0.4283
     31 C         140.1483  143.0924  170.0259 C.ar    1  UNL1        0.2849
     32 N         141.5240  143.0279  170.6202 N.ar    1  UNL1       -0.2085
     33 C         142.4690  142.5629  169.5521 C.ar    1  UNL1        0.1001
     34 C         143.9464  142.3570  169.7106 C.3     1  UNL1        0.0556
@<TRIPOS>BOND
     1    17    18    1
     2    18     7    1
     3     7     8   ar
     4     8     9   ar
     5     9    10   ar
     6    10     1    1
     7     1     2    1
     8     2     3    1
     9     3     4    1
    10     4     5    1
    11     5    19    1
    12    19    20    1
    13    20    21    1
    14    21    22    1
    15    22    23    1
    16    23    24   ar
    17    24    25   ar
    18    25    26   ar
    19    26    29    1
    20    29    30   ar
    21    30    31   ar
    22    31    32   ar
    23    32    33   ar
    24    33    34    1
    25    26    27   ar
    26    27    28    1
    27     5     6    1
    28    10    11   ar
    29    11    12   ar
    30    12    13    1
    31    13    14    1
    32    13    15    1
    33    13    16    1
    34    12     7   ar
    35     3     1    1
    36    27    23   ar
    37     6     1    1
    38    33    29   ar
@<TRIPOS>MOLECULE
*****
 34 38 0 0 0
SMALL
GASTEIGER

@<TRIPOS>ATOM
      1 C         138.8733  140.6810  164.4600 C.3     1  UNL1        0.0350
      2 C         138.3962  139.2733  164.2580 C.3     1  UNL1        0.0072
      3 C         137.7947  140.3911  163.4588 C.3     1  UNL1        0.0214
      4 C         137.3930  141.6882  162.8215 C.3     1  UNL1        0.0724
      5 N         138.2234  142.7798  163.4289 N.3     1  UNL1       -0.2724
      6 C         139.1382  142.1573  164.4416 C.3     1  UNL1        0.0761
      7 C         141.9171  139.6963  167.6248 C.ar    1  UNL1        0.1426
      8 C         140.5394  140.1379  168.0208 C.ar    1  UNL1        0.0365
      9 C         139.5248  140.4662  166.9659 C.ar    1  UNL1       -0.0011
     10 C         139.8879  140.3528  165.5150 C.ar    1  UNL1       -0.0213
     11 C         141.2656  139.9112  165.1189 C.ar    1  UNL1        0.0027
     12 C         142.2802  139.5830  166.1738 C.ar    1  UNL1        0.1050
     13 C         143.6580  139.1413  165.7777 C.3     1  UNL1        0.4214
     14 F         145.0356  138.6997  165.3817 F       1  UNL1       -0.1657
     15 F         143.3101  137.7287  166.1430 F       1  UNL1       -0.1657
     16 F         144.0058  140.5540  165.4124 F       1  UNL1       -0.1657
     17 C         142.8704  140.0463  170.0162 C.3     1  UNL1        0.2525
     18 O         142.9317  139.3681  168.6797 O.3     1  UNL1       -0.4715
     19 C         138.1515  144.2379  163.0842 C.3     1  UNL1        0.0730
     20 C         139.3732  145.0992  163.2090 C.3     1  UNL1        0.0294
     21 C         139.8497  145.8997  162.0334 C.3     1  UNL1        0.0666
     22 S         140.5331  145.2150  160.8871 S.3     1  UNL1       -0.0756
     23 C         141.6499  144.2483  161.1488 C.ar    1  UNL1        0.1933
     24 N         143.0020  144.5916  161.7000 N.ar    1  UNL1       -0.1220
     25 N         143.7984  143.3242  161.7971 N.ar    1  UNL1       -0.1250
     26 C         142.9384  142.1976  161.3059 C.ar    1  UNL1        0.2029
     27 N         141.6106  142.7688  160.9052 N.ar    1  UNL1       -0.2860
     28 C         140.4476  141.9960  160.3572 C.3     1  UNL1        0.1341
     29 C         143.3364  140.7535  161.2288 C.ar    1  UNL1        0.1964
     30 O         143.4122  139.7971  162.3819 O.2     1  UNL1       -0.4283
     31 C         143.8511  138.4646  161.8510 C.ar    1  UNL1        0.2849
     32 N         144.0466  138.5975  160.3697 N.ar    1  UNL1       -0.2085
     33 C         143.7285  140.0121  159.9852 C.ar    1  UNL1        0.1001
     34 C         143.7915  140.5847  158.6002 C.3     1  UNL1        0.0556
@<TRIPOS>BOND
     1    17    18    1
     2    18     7    1
     3     7     8   ar
     4     8     9   ar
     5     9    10   ar
     6    10     1    1
     7     1     2    1
     8     2     3    1
     9     3     4    1
    10     4     5    1
    11     5    19    1
    12    19    20    1
    13    20    21    1
    14    21    22    1
    15    22    23    1
    16    23    24   ar
    17    24    25   ar
    18    25    26   ar
    19    26    29    1
    20    29    30   ar
    21    30    31   ar
    22    31    32   ar
    23    32    33   ar
    24    33    34    1
    25    26    27   ar
    26    27    28    1
    27     5     6    1
    28    10    11   ar
    29    11    12   ar
    30    12    13    1
    31    13    14    1
    32    13    15    1
    33    13    16    1
    34    12     7   ar
    35     3     1    1
    36    27    23   ar
    37     6     1    1
    38    33    29   ar
@<TRIPOS>MOLECULE
*****
 34 38 0 0 0
SMALL
GASTEIGER

@<TRIPOS>ATOM
      1 C         141.2482  138.6968  165.2701 C.3     1  UNL1        0.0350
      2 C         142.6751  138.3142  165.5303 C.3     1  UNL1        0.0072
      3 C         141.9631  137.7789  164.3234 C.3     1  UNL1        0.0214
      4 C         141.0096  137.4113  163.2253 C.3     1  UNL1        0.0724
      5 N         139.7054  138.1022  163.4934 N.3     1  UNL1       -0.2724
      6 C         139.8529  138.8966  164.7571 C.3     1  UNL1        0.0761
      7 C         140.7957  141.3202  168.8982 C.ar    1  UNL1        0.1426
      8 C         139.5987  140.6230  168.3228 C.ar    1  UNL1        0.0365
      9 C         139.7495  139.7486  167.1134 C.ar    1  UNL1       -0.0011
     10 C         141.0974  139.5713  166.4795 C.ar    1  UNL1       -0.0213
     11 C         142.2943  140.2684  167.0550 C.ar    1  UNL1        0.0027
     12 C         142.1435  141.1429  168.2643 C.ar    1  UNL1        0.1050
     13 C         143.3406  141.8400  168.8398 C.3     1  UNL1        0.4214
     14 F         144.5376  142.5372  169.4152 F       1  UNL1       -0.1657
     15 F         143.2675  142.8663  167.7483 F       1  UNL1       -0.1657
     16 F         143.4137  140.8137  169.9312 F       1  UNL1       -0.1657
     17 C         140.6145  141.5825  171.4767 C.3     1  UNL1        0.2525
     18 O         140.6448  142.1946  170.1076 O.3     1  UNL1       -0.4715
     19 C         138.4706  138.0140  162.6464 C.3     1  UNL1        0.0730
     20 C         138.5088  138.4630  161.2157 C.3     1  UNL1        0.0294
     21 C         137.6959  139.6454  160.7788 C.3     1  UNL1        0.0666
     22 S         138.3379  140.7453  159.9864 S.3     1  UNL1       -0.0756
     23 C         138.9549  141.9165  160.6920 C.ar    1  UNL1        0.1933
     24 N         138.3064  143.2495  160.9207 N.ar    1  UNL1       -0.1220
     25 N         139.2794  144.1171  161.6628 N.ar    1  UNL1       -0.1250
     26 C         140.5292  143.3201  161.8926 C.ar    1  UNL1        0.2029
     27 N         140.3287  141.9601  161.2926 N.ar    1  UNL1       -0.2860
     28 C         141.3267  140.8402  161.2932 C.3     1  UNL1        0.1341
     29 C         141.7630  143.7991  162.5985 C.ar    1  UNL1        0.1964
     30 O         142.9608  144.4286  161.9513 O.2     1  UNL1       -0.4283
     31 C         143.9538  144.7512  163.0283 C.ar    1  UNL1        0.2849
     32 N         143.3696  144.3212  164.3412 N.ar    1  UNL1       -0.2085
     33 C         142.0156  143.7328  164.0756 C.ar    1  UNL1        0.1001
     34 C         141.0787  143.1758  165.1062 C.3     1  UNL1        0.0556
@<TRIPOS>BOND
     1    17    18    1
     2    18     7    1
     3     7     8   ar
     4     8     9   ar
     5     9    10   ar
     6    10     1    1
     7     1     2    1
     8     2     3    1
     9     3     4    1
    10     4     5    1
    11     5    19    1
    12    19    20    1
    13    20    21    1
    14    21    22    1
    15    22    23    1
    16    23    24   ar
    17    24    25   ar
    18    25    26   ar
    19    26    29    1
    20    29    30   ar
    21    30    31   ar
    22    31    32   ar
    23    32    33   ar
    24    33    34    1
    25    26    27   ar
    26    27    28    1
    27     5     6    1
    28    10    11   ar
    29    11    12   ar
    30    12    13    1
    31    13    14    1
    32    13    15    1
    33    13    16    1
    34    12     7   ar
    35     3     1    1
    36    27    23   ar
    37     6     1    1
    38    33    29   ar
