@<TRIPOS>MOLECULE
*****
 40 45 0 0 0
SMALL
GASTEIGER

@<TRIPOS>ATOM
      1 C         137.9628  142.9036  162.8211 C.3     1  UNL1        0.1177
      2 C         137.7238  141.8314  163.8425 C.3     1  UNL1        0.0310
      3 C         137.6971  140.3908  163.4254 C.3     1  UNL1        0.0194
      4 C         137.9095  140.0224  161.9869 C.3     1  UNL1        0.0700
      5 C         138.1485  141.0946  160.9655 C.3     1  UNL1        0.0194
      6 C         138.1751  142.5352  161.3826 C.3     1  UNL1        0.0310
      7 C         137.9329  140.8253  162.1677 C.3     1  UNL1        0.1563
      8 O         137.9570  142.1280  162.5447 O.3     1  UNL1       -0.3548
      9 C         137.9894  144.3442  163.2381 C.3     1  UNL1        0.1396
     10 O         137.0526  145.3270  162.6006 O.3     1  UNL1       -0.3817
     11 H         137.1992  146.2071  162.9812 H       1  UNL1        0.2105
     12 C         138.9530  144.8020  164.2926 C.3     1  UNL1        0.0619
     13 C         140.8811  141.9633  167.2036 C.ar    1  UNL1        0.2250
     14 C         142.3399  141.6375  167.0790 C.ar    1  UNL1        0.0593
     15 C         143.1561  142.2578  165.9840 C.ar    1  UNL1        0.0254
     16 C         142.5134  143.2041  165.0137 C.ar    1  UNL1        0.0990
     17 N         143.3296  143.8245  163.9187 N.ar    1  UNL1       -0.2400
     18 C         142.6869  144.7707  162.9483 C.ar    1  UNL1        0.1281
     19 C         141.2280  145.0966  163.0730 C.ar    1  UNL1        0.1567
     20 F         140.5853  146.0428  162.1027 F       1  UNL1       -0.2028
     21 C         140.4118  144.4762  164.1680 C.ar    1  UNL1        0.0285
     22 C         141.0546  143.5299  165.1383 C.ar    1  UNL1        0.1002
     23 N         140.2384  142.9095  166.2333 N.ar    1  UNL1       -0.2104
     24 C         139.4706  139.9787  168.1101 C.3     1  UNL1        0.2542
     25 O         140.0649  141.3429  168.2986 O.3     1  UNL1       -0.4561
     26 N         137.8828  138.5818  161.5699 N.3     1  UNL1       -0.2926
     27 H         137.3270  138.5327  160.7161 H       1  UNL1        0.1236
     28 C         139.1667  137.8573  161.2930 C.3     1  UNL1        0.1152
     29 C         140.3689  138.1054  162.1551 C.ar    1  UNL1        0.0765
     30 C         140.5463  137.3401  163.4330 C.ar    1  UNL1        0.0193
     31 C         141.7485  137.5883  164.2951 C.ar    1  UNL1        0.0411
     32 C         142.7733  138.6017  163.8793 C.ar    1  UNL1        0.1708
     33 C         142.5959  139.3669  162.6015 C.ar    1  UNL1        0.1682
     34 N         141.3937  139.1188  161.7393 N.ar    1  UNL1       -0.2304
     35 N         143.6207  140.3803  162.1857 N.am    1  UNL1       -0.2639
     36 C         144.8228  140.6284  163.0478 C.2     1  UNL1        0.2718
     37 O         145.8476  141.6418  162.6320 O.2     1  UNL1       -0.2707
     38 C         145.0003  139.8632  164.3257 C.3     1  UNL1        0.2898
     39 O         143.9755  138.8498  164.7414 O.3     1  UNL1       -0.4628
     40 H         143.5043  140.8825  161.3470 H       1  UNL1        0.1565
@<TRIPOS>BOND
     1    24    25    1
     2    25    13    1
     3    13    14   ar
     4    14    15   ar
     5    15    16   ar
     6    16    17   ar
     7    17    18   ar
     8    18    19   ar
     9    19    20    1
    10    19    21   ar
    11    21    12    1
    12    12     9    1
    13     9    10    1
    14     9     1    1
    15     1     2    1
    16     2     3    1
    17     3     4    1
    18     4    26    1
    19    26    28    1
    20    28    29    1
    21    29    30   ar
    22    30    31   ar
    23    31    32   ar
    24    32    33   ar
    25    33    34   ar
    26    33    35    1
    27    35    36   am
    28    36    37    2
    29    36    38    1
    30    38    39    1
    31     4     5    1
    32     5     6    1
    33     4     7    1
    34     7     8    1
    35    21    22   ar
    36    22    23   ar
    37    23    13   ar
    38    22    16   ar
    39     6     1    1
    40     8     1    1
    41    34    29   ar
    42    39    32    1
    43    10    11    1
    44    26    27    1
    45    35    40    1
@<TRIPOS>MOLECULE
*****
 40 45 0 0 0
SMALL
GASTEIGER

@<TRIPOS>ATOM
      1 C         144.0023  142.6242  163.2138 C.3     1  UNL1        0.1177
      2 C         143.3863  143.2891  164.4089 C.3     1  UNL1        0.0310
      3 C         142.3883  144.3931  164.2217 C.3     1  UNL1        0.0194
      4 C         142.0061  144.8322  162.8392 C.3     1  UNL1        0.0700
      5 C         142.6221  144.1673  161.6440 C.3     1  UNL1        0.0194
      6 C         143.6202  143.0632  161.8313 C.3     1  UNL1        0.0310
      7 C         142.5575  144.2229  162.8917 C.3     1  UNL1        0.1563
      8 O         143.4600  143.2247  163.0610 O.3     1  UNL1       -0.3548
      9 C         145.0003  141.5202  163.4010 C.3     1  UNL1        0.1396
     10 O         146.4649  141.7965  163.2316 O.3     1  UNL1       -0.3817
     11 H         146.9677  140.9815  163.3866 H       1  UNL1        0.2105
     12 C         144.5338  140.1399  163.7577 C.3     1  UNL1        0.0619
     13 C         140.8472  139.7701  166.3116 C.ar    1  UNL1        0.2250
     14 C         139.5773  139.2319  165.7221 C.ar    1  UNL1        0.0593
     15 C         139.5362  138.8170  164.2812 C.ar    1  UNL1        0.0254
     16 C         140.7651  138.9402  163.4299 C.ar    1  UNL1        0.0990
     17 N         140.7240  138.5253  161.9890 N.ar    1  UNL1       -0.2400
     18 C         141.9528  138.6485  161.1377 C.ar    1  UNL1        0.1281
     19 C         143.2228  139.1868  161.7272 C.ar    1  UNL1        0.1567
     20 F         144.4516  139.3100  160.8759 F       1  UNL1       -0.2028
     21 C         143.2639  139.6017  163.1681 C.ar    1  UNL1        0.0285
     22 C         142.0350  139.4784  164.0194 C.ar    1  UNL1        0.1002
     23 N         142.0761  139.8934  165.4603 N.ar    1  UNL1       -0.2104
     24 C         139.6441  140.1193  168.5877 C.3     1  UNL1        0.2542
     25 O         140.8883  140.1850  167.7525 O.3     1  UNL1       -0.4561
     26 N         141.0081  145.9362  162.6519 N.3     1  UNL1       -0.2926
     27 H         141.1403  146.2953  161.7064 H       1  UNL1        0.1236
     28 C         139.5426  145.6569  162.8081 C.3     1  UNL1        0.1152
     29 C         139.0095  144.2796  162.5458 C.ar    1  UNL1        0.0765
     30 C         138.4661  143.4577  163.6769 C.ar    1  UNL1        0.0193
     31 C         137.9330  142.0804  163.4147 C.ar    1  UNL1        0.0411
     32 C         137.9432  141.5250  162.0213 C.ar    1  UNL1        0.1708
     33 C         138.4865  142.3468  160.8903 C.ar    1  UNL1        0.1682
     34 N         139.0197  143.7241  161.1525 N.ar    1  UNL1       -0.2304
     35 N         138.4967  141.7913  159.4969 N.am    1  UNL1       -0.2639
     36 C         137.9636  140.4141  159.2347 C.2     1  UNL1        0.2718
     37 O         137.9738  139.8586  157.8413 O.2     1  UNL1       -0.2707
     38 C         137.4202  139.5921  160.3658 C.3     1  UNL1        0.2898
     39 O         137.4100  140.1476  161.7591 O.3     1  UNL1       -0.4628
     40 H         138.8534  142.3307  158.7546 H       1  UNL1        0.1565
@<TRIPOS>BOND
     1    24    25    1
     2    25    13    1
     3    13    14   ar
     4    14    15   ar
     5    15    16   ar
     6    16    17   ar
     7    17    18   ar
     8    18    19   ar
     9    19    20    1
    10    19    21   ar
    11    21    12    1
    12    12     9    1
    13     9    10    1
    14     9     1    1
    15     1     2    1
    16     2     3    1
    17     3     4    1
    18     4    26    1
    19    26    28    1
    20    28    29    1
    21    29    30   ar
    22    30    31   ar
    23    31    32   ar
    24    32    33   ar
    25    33    34   ar
    26    33    35    1
    27    35    36   am
    28    36    37    2
    29    36    38    1
    30    38    39    1
    31     4     5    1
    32     5     6    1
    33     4     7    1
    34     7     8    1
    35    21    22   ar
    36    22    23   ar
    37    23    13   ar
    38    22    16   ar
    39     6     1    1
    40     8     1    1
    41    34    29   ar
    42    39    32    1
    43    10    11    1
    44    26    27    1
    45    35    40    1
@<TRIPOS>MOLECULE
*****
 40 45 0 0 0
SMALL
GASTEIGER

@<TRIPOS>ATOM
      1 C         139.8818  138.0327  164.3648 C.3     1  UNL1        0.1177
      2 C         141.2742  138.0564  164.9223 C.3     1  UNL1        0.0310
      3 C         142.4527  137.9389  164.0018 C.3     1  UNL1        0.0194
      4 C         142.2388  137.7976  162.5238 C.3     1  UNL1        0.0700
      5 C         140.8464  137.7739  161.9664 C.3     1  UNL1        0.0194
      6 C         139.6679  137.8914  162.8869 C.3     1  UNL1        0.0310
      7 C         141.5620  137.8588  162.9886 C.3     1  UNL1        0.1563
      8 O         140.4963  137.9651  163.8209 O.3     1  UNL1       -0.3548
      9 C         138.7034  138.1502  165.2853 C.3     1  UNL1        0.1396
     10 O         138.1503  136.9275  165.9556 O.3     1  UNL1       -0.3817
     11 H         137.3961  137.1771  166.5121 H       1  UNL1        0.2105
     12 C         138.0779  139.4904  165.5356 C.3     1  UNL1        0.0619
     13 C         138.4598  143.0651  162.8290 C.ar    1  UNL1        0.2250
     14 C         139.3152  144.2274  163.2379 C.ar    1  UNL1        0.0593
     15 C         140.0434  144.1981  164.5490 C.ar    1  UNL1        0.0254
     16 C         139.9161  143.0066  165.4512 C.ar    1  UNL1        0.0990
     17 N         140.6442  142.9774  166.7623 N.ar    1  UNL1       -0.2400
     18 C         140.5169  141.7859  167.6645 C.ar    1  UNL1        0.1281
     19 C         139.6615  140.6235  167.2556 C.ar    1  UNL1        0.1567
     20 F         139.5342  139.4320  168.1578 F       1  UNL1       -0.2028
     21 C         138.9333  140.6527  165.9445 C.ar    1  UNL1        0.0285
     22 C         139.0606  141.8443  165.0423 C.ar    1  UNL1        0.1002
     23 N         138.3325  141.8736  163.7312 N.ar    1  UNL1       -0.2104
     24 C         138.3984  142.5767  160.2780 C.3     1  UNL1        0.2542
     25 O         137.7316  143.0943  161.5179 O.3     1  UNL1       -0.4561
     26 N         143.4173  137.6801  161.6033 N.3     1  UNL1       -0.2926
     27 H         143.2006  136.9351  160.9412 H       1  UNL1        0.1236
     28 C         143.8580  138.8638  160.7942 C.3     1  UNL1        0.1152
     29 C         143.6575  140.2521  161.3255 C.ar    1  UNL1        0.0765
     30 C         142.7751  141.2166  160.5898 C.ar    1  UNL1        0.0193
     31 C         142.5746  142.6049  161.1212 C.ar    1  UNL1        0.0411
     32 C         143.2564  143.0287  162.3883 C.ar    1  UNL1        0.1708
     33 C         144.1387  142.0643  163.1240 C.ar    1  UNL1        0.1682
     34 N         144.3392  140.6759  162.5927 N.ar    1  UNL1       -0.2304
     35 N         144.8204  142.4881  164.3911 N.am    1  UNL1       -0.2639
     36 C         144.6199  143.8764  164.9225 C.2     1  UNL1        0.2718
     37 O         145.3017  144.3002  166.1896 O.2     1  UNL1       -0.2707
     38 C         143.7376  144.8409  164.1868 C.3     1  UNL1        0.2898
     39 O         143.0559  144.4171  162.9197 O.3     1  UNL1       -0.4628
     40 H         145.3995  141.8551  164.8740 H       1  UNL1        0.1565
@<TRIPOS>BOND
     1    24    25    1
     2    25    13    1
     3    13    14   ar
     4    14    15   ar
     5    15    16   ar
     6    16    17   ar
     7    17    18   ar
     8    18    19   ar
     9    19    20    1
    10    19    21   ar
    11    21    12    1
    12    12     9    1
    13     9    10    1
    14     9     1    1
    15     1     2    1
    16     2     3    1
    17     3     4    1
    18     4    26    1
    19    26    28    1
    20    28    29    1
    21    29    30   ar
    22    30    31   ar
    23    31    32   ar
    24    32    33   ar
    25    33    34   ar
    26    33    35    1
    27    35    36   am
    28    36    37    2
    29    36    38    1
    30    38    39    1
    31     4     5    1
    32     5     6    1
    33     4     7    1
    34     7     8    1
    35    21    22   ar
    36    22    23   ar
    37    23    13   ar
    38    22    16   ar
    39     6     1    1
    40     8     1    1
    41    34    29   ar
    42    39    32    1
    43    10    11    1
    44    26    27    1
    45    35    40    1
@<TRIPOS>MOLECULE
*****
 40 45 0 0 0
SMALL
GASTEIGER

@<TRIPOS>ATOM
      1 C         139.4133  137.9318  164.6355 C.3     1  UNL1        0.1177
      2 C         140.8521  137.6467  164.9493 C.3     1  UNL1        0.0310
      3 C         141.8410  137.4660  163.8360 C.3     1  UNL1        0.0194
      4 C         141.3911  137.5704  162.4089 C.3     1  UNL1        0.0700
      5 C         139.9522  137.8555  162.0951 C.3     1  UNL1        0.0194
      6 C         138.9633  138.0362  163.2085 C.3     1  UNL1        0.0310
      7 C         140.8126  137.6770  162.9850 C.3     1  UNL1        0.1563
      8 O         139.9184  137.8403  163.9917 O.3     1  UNL1       -0.3548
      9 C         138.4244  138.1124  165.7488 C.3     1  UNL1        0.1396
     10 O         137.7429  136.9179  166.3478 O.3     1  UNL1       -0.3817
     11 H         137.1397  137.2081  167.0499 H       1  UNL1        0.2105
     12 C         138.1170  139.4876  166.2631 C.3     1  UNL1        0.0619
     13 C         141.6133  140.2648  168.9874 C.ar    1  UNL1        0.2250
     14 C         142.5505  141.4000  168.6996 C.ar    1  UNL1        0.0593
     15 C         142.3222  142.2762  167.5037 C.ar    1  UNL1        0.0254
     16 C         141.1568  142.0172  166.5956 C.ar    1  UNL1        0.0990
     17 N         140.9285  142.8934  165.3997 N.ar    1  UNL1       -0.2400
     18 C         139.7631  142.6343  164.4916 C.ar    1  UNL1        0.1281
     19 C         138.8259  141.4990  164.7794 C.ar    1  UNL1        0.1567
     20 F         137.6605  141.2400  163.8714 F       1  UNL1       -0.2028
     21 C         139.0541  140.6228  165.9753 C.ar    1  UNL1        0.0285
     22 C         140.2196  140.8819  166.8834 C.ar    1  UNL1        0.1002
     23 N         140.4479  140.0057  168.0793 N.ar    1  UNL1       -0.2104
     24 C         142.8474  138.2777  170.1181 C.3     1  UNL1        0.2542
     25 O         141.8416  139.3886  170.1833 O.3     1  UNL1       -0.4561
     26 N         142.3799  137.3898  161.2956 N.3     1  UNL1       -0.2926
     27 H         141.8556  137.4527  160.4229 H       1  UNL1        0.1236
     28 C         143.5457  138.3252  161.1688 C.3     1  UNL1        0.1152
     29 C         143.4032  139.7611  161.5784 C.ar    1  UNL1        0.0765
     30 C         142.5609  140.6944  160.7602 C.ar    1  UNL1        0.0193
     31 C         142.4184  142.1303  161.1699 C.ar    1  UNL1        0.0411
     32 C         143.1181  142.6329  162.3978 C.ar    1  UNL1        0.1708
     33 C         143.9603  141.6996  163.2161 C.ar    1  UNL1        0.1682
     34 N         144.1029  140.2636  162.8064 N.ar    1  UNL1       -0.2304
     35 N         144.6600  142.2022  164.4440 N.am    1  UNL1       -0.2639
     36 C         144.5175  143.6381  164.8537 C.2     1  UNL1        0.2718
     37 O         145.2172  144.1407  166.0816 O.2     1  UNL1       -0.2707
     38 C         143.6752  144.5715  164.0354 C.3     1  UNL1        0.2898
     39 O         142.9755  144.0689  162.8075 O.3     1  UNL1       -0.4628
     40 H         145.2128  141.5896  164.9810 H       1  UNL1        0.1565
@<TRIPOS>BOND
     1    24    25    1
     2    25    13    1
     3    13    14   ar
     4    14    15   ar
     5    15    16   ar
     6    16    17   ar
     7    17    18   ar
     8    18    19   ar
     9    19    20    1
    10    19    21   ar
    11    21    12    1
    12    12     9    1
    13     9    10    1
    14     9     1    1
    15     1     2    1
    16     2     3    1
    17     3     4    1
    18     4    26    1
    19    26    28    1
    20    28    29    1
    21    29    30   ar
    22    30    31   ar
    23    31    32   ar
    24    32    33   ar
    25    33    34   ar
    26    33    35    1
    27    35    36   am
    28    36    37    2
    29    36    38    1
    30    38    39    1
    31     4     5    1
    32     5     6    1
    33     4     7    1
    34     7     8    1
    35    21    22   ar
    36    22    23   ar
    37    23    13   ar
    38    22    16   ar
    39     6     1    1
    40     8     1    1
    41    34    29   ar
    42    39    32    1
    43    10    11    1
    44    26    27    1
    45    35    40    1
@<TRIPOS>MOLECULE
*****
 40 45 0 0 0
SMALL
GASTEIGER

@<TRIPOS>ATOM
      1 C         142.1190  138.3933  163.9890 C.3     1  UNL1        0.1177
      2 C         142.2565  138.8075  162.5539 C.3     1  UNL1        0.0310
      3 C         143.4158  139.6578  162.1264 C.3     1  UNL1        0.0194
      4 C         144.4377  140.0942  163.1341 C.3     1  UNL1        0.0700
      5 C         144.3002  139.6801  164.5693 C.3     1  UNL1        0.0194
      6 C         143.1408  138.8296  164.9967 C.3     1  UNL1        0.0310
      7 C         143.8197  139.6287  163.4158 C.3     1  UNL1        0.1563
      8 O         142.7714  138.8597  163.8023 O.3     1  UNL1       -0.3548
      9 C         140.9597  137.5430  164.4165 C.3     1  UNL1        0.1396
     10 O         141.0550  136.0483  164.3334 O.3     1  UNL1       -0.3817
     11 H         140.2258  135.6536  164.6457 H       1  UNL1        0.2105
     12 C         139.7049  138.1872  164.9271 C.3     1  UNL1        0.0619
     13 C         140.0057  142.4550  166.3221 C.ar    1  UNL1        0.2250
     14 C         139.3503  143.5497  165.5335 C.ar    1  UNL1        0.0593
     15 C         138.5946  143.2219  164.2799 C.ar    1  UNL1        0.0254
     16 C         138.4943  141.7993  163.8149 C.ar    1  UNL1        0.0990
     17 N         137.7386  141.4715  162.5613 N.ar    1  UNL1       -0.2400
     18 C         137.6384  140.0490  162.0963 C.ar    1  UNL1        0.1281
     19 C         138.2938  138.9542  162.8849 C.ar    1  UNL1        0.1567
     20 F         138.1936  137.5316  162.4199 F       1  UNL1       -0.2028
     21 C         139.0495  139.2820  164.1385 C.ar    1  UNL1        0.0285
     22 C         139.1497  140.7046  164.6035 C.ar    1  UNL1        0.1002
     23 N         139.9054  141.0324  165.8571 N.ar    1  UNL1       -0.2104
     24 C         140.5018  142.0064  168.8326 C.3     1  UNL1        0.2542
     25 O         140.7613  142.7828  167.5757 O.3     1  UNL1       -0.4561
     26 N         145.5970  140.9445  162.7067 N.3     1  UNL1       -0.2926
     27 H         145.6403  140.8932  161.6889 H       1  UNL1        0.1236
     28 C         145.6336  142.3997  163.0688 C.3     1  UNL1        0.1152
     29 C         144.3788  143.2194  163.0083 C.ar    1  UNL1        0.0765
     30 C         143.7685  143.7509  164.2714 C.ar    1  UNL1        0.0193
     31 C         142.5138  144.5705  164.2109 C.ar    1  UNL1        0.0411
     32 C         141.8692  144.8587  162.8875 C.ar    1  UNL1        0.1708
     33 C         142.4794  144.3273  161.6245 C.ar    1  UNL1        0.1682
     34 N         143.7343  143.5076  161.6849 N.ar    1  UNL1       -0.2304
     35 N         141.8349  144.6155  160.3010 N.am    1  UNL1       -0.2639
     36 C         140.5801  145.4352  160.2406 C.2     1  UNL1        0.2718
     37 O         139.9356  145.7234  158.9171 O.2     1  UNL1       -0.2707
     38 C         139.9699  145.9667  161.5036 C.3     1  UNL1        0.2898
     39 O         140.6144  145.6785  162.8270 O.3     1  UNL1       -0.4628
     40 H         142.2354  144.2667  159.4721 H       1  UNL1        0.1565
@<TRIPOS>BOND
     1    24    25    1
     2    25    13    1
     3    13    14   ar
     4    14    15   ar
     5    15    16   ar
     6    16    17   ar
     7    17    18   ar
     8    18    19   ar
     9    19    20    1
    10    19    21   ar
    11    21    12    1
    12    12     9    1
    13     9    10    1
    14     9     1    1
    15     1     2    1
    16     2     3    1
    17     3     4    1
    18     4    26    1
    19    26    28    1
    20    28    29    1
    21    29    30   ar
    22    30    31   ar
    23    31    32   ar
    24    32    33   ar
    25    33    34   ar
    26    33    35    1
    27    35    36   am
    28    36    37    2
    29    36    38    1
    30    38    39    1
    31     4     5    1
    32     5     6    1
    33     4     7    1
    34     7     8    1
    35    21    22   ar
    36    22    23   ar
    37    23    13   ar
    38    22    16   ar
    39     6     1    1
    40     8     1    1
    41    34    29   ar
    42    39    32    1
    43    10    11    1
    44    26    27    1
    45    35    40    1
@<TRIPOS>MOLECULE
*****
 40 45 0 0 0
SMALL
GASTEIGER

@<TRIPOS>ATOM
      1 C         141.3190  144.7266  162.7562 C.3     1  UNL1        0.1177
      2 C         141.6332  143.9522  161.5105 C.3     1  UNL1        0.0310
      3 C         142.9837  143.3222  161.3397 C.3     1  UNL1        0.0194
      4 C         144.0200  143.4664  162.4146 C.3     1  UNL1        0.0700
      5 C         143.7058  144.2408  163.6602 C.3     1  UNL1        0.0194
      6 C         142.3553  144.8708  163.8310 C.3     1  UNL1        0.0310
      7 C         143.2941  143.8295  162.5532 C.3     1  UNL1        0.1563
      8 O         142.0730  144.3992  162.7077 O.3     1  UNL1       -0.3548
      9 C         139.9686  145.3567  162.9270 C.3     1  UNL1        0.1396
     10 O         139.6154  146.5941  162.1563 O.3     1  UNL1       -0.3817
     11 H         138.7128  146.8688  162.3817 H       1  UNL1        0.2105
     12 C         138.9712  144.7493  163.8685 C.3     1  UNL1        0.0619
     13 C         140.4385  142.3557  167.3853 C.ar    1  UNL1        0.2250
     14 C         140.2434  140.8687  167.4143 C.ar    1  UNL1        0.0593
     15 C         139.5592  140.1796  166.2711 C.ar    1  UNL1        0.0254
     16 C         139.0701  140.9775  165.0988 C.ar    1  UNL1        0.0990
     17 N         138.3859  140.2883  163.9556 N.ar    1  UNL1       -0.2400
     18 C         137.8968  141.0862  162.7833 C.ar    1  UNL1        0.1281
     19 C         138.0919  142.5732  162.7543 C.ar    1  UNL1        0.1567
     20 F         137.6028  143.3710  161.5820 F       1  UNL1       -0.2028
     21 C         138.7761  143.2623  163.8975 C.ar    1  UNL1        0.0285
     22 C         139.2652  142.4644  165.0698 C.ar    1  UNL1        0.1002
     23 N         139.9494  143.1535  166.2131 N.ar    1  UNL1       -0.2104
     24 C         140.4605  143.1040  169.8732 C.3     1  UNL1        0.2542
     25 O         141.1226  143.0448  168.5286 O.3     1  UNL1       -0.4561
     26 N         145.3705  142.8363  162.2438 N.3     1  UNL1       -0.2926
     27 H         146.0603  143.5511  162.4754 H       1  UNL1        0.1236
     28 C         145.7327  141.6132  163.0329 C.3     1  UNL1        0.1152
     29 C         144.6779  140.6045  163.3792 C.ar    1  UNL1        0.0765
     30 C         144.7166  139.9039  164.7050 C.ar    1  UNL1        0.0193
     31 C         143.6618  138.8952  165.0513 C.ar    1  UNL1        0.0411
     32 C         142.5682  138.5872  164.0719 C.ar    1  UNL1        0.1708
     33 C         142.5295  139.2878  162.7462 C.ar    1  UNL1        0.1682
     34 N         143.5843  140.2965  162.3998 N.ar    1  UNL1       -0.2304
     35 N         141.4359  138.9797  161.7668 N.am    1  UNL1       -0.2639
     36 C         140.3811  137.9711  162.1131 C.2     1  UNL1        0.2718
     37 O         139.2875  137.6631  161.1337 O.2     1  UNL1       -0.2707
     38 C         140.4198  137.2704  163.4389 C.3     1  UNL1        0.2898
     39 O         141.5134  137.5785  164.4183 O.3     1  UNL1       -0.4628
     40 H         141.4105  139.4396  160.8967 H       1  UNL1        0.1565
@<TRIPOS>BOND
     1    24    25    1
     2    25    13    1
     3    13    14   ar
     4    14    15   ar
     5    15    16   ar
     6    16    17   ar
     7    17    18   ar
     8    18    19   ar
     9    19    20    1
    10    19    21   ar
    11    21    12    1
    12    12     9    1
    13     9    10    1
    14     9     1    1
    15     1     2    1
    16     2     3    1
    17     3     4    1
    18     4    26    1
    19    26    28    1
    20    28    29    1
    21    29    30   ar
    22    30    31   ar
    23    31    32   ar
    24    32    33   ar
    25    33    34   ar
    26    33    35    1
    27    35    36   am
    28    36    37    2
    29    36    38    1
    30    38    39    1
    31     4     5    1
    32     5     6    1
    33     4     7    1
    34     7     8    1
    35    21    22   ar
    36    22    23   ar
    37    23    13   ar
    38    22    16   ar
    39     6     1    1
    40     8     1    1
    41    34    29   ar
    42    39    32    1
    43    10    11    1
    44    26    27    1
    45    35    40    1
@<TRIPOS>MOLECULE
*****
 40 45 0 0 0
SMALL
GASTEIGER

@<TRIPOS>ATOM
      1 C         139.5790  143.6484  163.3637 C.3     1  UNL1        0.1177
      2 C         139.9624  143.2784  164.7659 C.3     1  UNL1        0.0310
      3 C         141.3961  143.3627  165.1985 C.3     1  UNL1        0.0194
      4 C         142.4466  143.8170  164.2288 C.3     1  UNL1        0.0700
      5 C         142.0633  144.1870  162.8266 C.3     1  UNL1        0.0194
      6 C         140.6295  144.1027  162.3941 C.3     1  UNL1        0.0310
      7 C         141.6740  143.7868  163.9458 C.3     1  UNL1        0.1563
      8 O         140.3776  143.7106  163.5546 O.3     1  UNL1       -0.3548
      9 C         138.1453  143.5641  162.9311 C.3     1  UNL1        0.1396
     10 O         137.4061  144.8087  162.5379 O.3     1  UNL1       -0.3817
     11 H         136.4976  144.5796  162.2870 H       1  UNL1        0.2105
     12 C         137.4506  142.2352  162.8917 C.3     1  UNL1        0.0619
     13 C         138.6464  138.8443  165.5975 C.ar    1  UNL1        0.2250
     14 C         139.3504  137.6464  165.0325 C.ar    1  UNL1        0.0593
     15 C         139.6559  137.5788  163.5655 C.ar    1  UNL1        0.0254
     16 C         139.2573  138.7091  162.6635 C.ar    1  UNL1        0.0990
     17 N         139.5628  138.6415  161.1965 N.ar    1  UNL1       -0.2400
     18 C         139.1642  139.7718  160.2946 C.ar    1  UNL1        0.1281
     19 C         138.4601  140.9698  160.8596 C.ar    1  UNL1        0.1567
     20 F         138.0616  142.1000  159.9577 F       1  UNL1       -0.2028
     21 C         138.1546  141.0373  162.3266 C.ar    1  UNL1        0.0285
     22 C         138.5533  139.9070  163.2286 C.ar    1  UNL1        0.1002
     23 N         138.2478  139.9746  164.6956 N.ar    1  UNL1       -0.2104
     24 C         139.1479  139.8062  167.9583 C.3     1  UNL1        0.2542
     25 O         138.3409  138.9119  167.0645 O.3     1  UNL1       -0.4561
     26 N         143.8804  143.9012  164.6614 N.3     1  UNL1       -0.2926
     27 H         143.8793  144.2609  165.6159 H       1  UNL1        0.1236
     28 C         144.7367  142.6697  164.6637 C.3     1  UNL1        0.1152
     29 C         144.2627  141.4253  163.9733 C.ar    1  UNL1        0.0765
     30 C         143.7539  140.2675  164.7799 C.ar    1  UNL1        0.0193
     31 C         143.2799  139.0231  164.0895 C.ar    1  UNL1        0.0411
     32 C         143.3146  138.9364  162.5924 C.ar    1  UNL1        0.1708
     33 C         143.8234  140.0942  161.7857 C.ar    1  UNL1        0.1682
     34 N         144.2975  141.3386  162.4762 N.ar    1  UNL1       -0.2304
     35 N         143.8582  140.0075  160.2886 N.am    1  UNL1       -0.2639
     36 C         143.3841  138.7631  159.5982 C.2     1  UNL1        0.2718
     37 O         143.4189  138.6765  158.1011 O.2     1  UNL1       -0.2707
     38 C         142.8753  137.6053  160.4049 C.3     1  UNL1        0.2898
     39 O         142.8406  137.6919  161.9020 O.3     1  UNL1       -0.4628
     40 H         144.1921  140.7674  159.7592 H       1  UNL1        0.1565
@<TRIPOS>BOND
     1    24    25    1
     2    25    13    1
     3    13    14   ar
     4    14    15   ar
     5    15    16   ar
     6    16    17   ar
     7    17    18   ar
     8    18    19   ar
     9    19    20    1
    10    19    21   ar
    11    21    12    1
    12    12     9    1
    13     9    10    1
    14     9     1    1
    15     1     2    1
    16     2     3    1
    17     3     4    1
    18     4    26    1
    19    26    28    1
    20    28    29    1
    21    29    30   ar
    22    30    31   ar
    23    31    32   ar
    24    32    33   ar
    25    33    34   ar
    26    33    35    1
    27    35    36   am
    28    36    37    2
    29    36    38    1
    30    38    39    1
    31     4     5    1
    32     5     6    1
    33     4     7    1
    34     7     8    1
    35    21    22   ar
    36    22    23   ar
    37    23    13   ar
    38    22    16   ar
    39     6     1    1
    40     8     1    1
    41    34    29   ar
    42    39    32    1
    43    10    11    1
    44    26    27    1
    45    35    40    1
@<TRIPOS>MOLECULE
*****
 40 45 0 0 0
SMALL
GASTEIGER

@<TRIPOS>ATOM
      1 C         138.1675  139.8207  162.5475 C.3     1  UNL1        0.1177
      2 C         137.7449  140.5467  163.7902 C.3     1  UNL1        0.0310
      3 C         137.5722  142.0365  163.7664 C.3     1  UNL1        0.0194
      4 C         137.8220  142.8004  162.4998 C.3     1  UNL1        0.0700
      5 C         138.2446  142.0744  161.2571 C.3     1  UNL1        0.0194
      6 C         138.4173  140.5845  161.2810 C.3     1  UNL1        0.0310
      7 C         137.9297  141.9849  162.4642 C.3     1  UNL1        0.1563
      8 O         138.0859  140.6378  162.4857 O.3     1  UNL1       -0.3548
      9 C         138.3403  138.3309  162.5713 C.3     1  UNL1        0.1396
     10 O         137.4506  137.4593  161.7354 O.3     1  UNL1       -0.3817
     11 H         137.6936  136.5294  161.8663 H       1  UNL1        0.2105
     12 C         139.4028  137.7127  163.4310 C.3     1  UNL1        0.0619
     13 C         140.2926  139.8286  167.3015 C.ar    1  UNL1        0.2250
     14 C         141.6064  140.5277  167.4893 C.ar    1  UNL1        0.0593
     15 C         142.6235  140.5215  166.3868 C.ar    1  UNL1        0.0254
     16 C         142.3269  139.8162  165.0967 C.ar    1  UNL1        0.0990
     17 N         143.3441  139.8101  163.9942 N.ar    1  UNL1       -0.2400
     18 C         143.0475  139.1048  162.7041 C.ar    1  UNL1        0.1281
     19 C         141.7336  138.4056  162.5163 C.ar    1  UNL1        0.1567
     20 F         141.4371  137.7004  161.2261 F       1  UNL1       -0.2028
     21 C         140.7165  138.4118  163.6187 C.ar    1  UNL1        0.0285
     22 C         141.0132  139.1171  164.9089 C.ar    1  UNL1        0.1002
     23 N         139.9960  139.1233  166.0114 N.ar    1  UNL1       -0.2104
     24 C         139.6723  140.2548  169.7882 C.3     1  UNL1        0.2542
     25 O         139.2755  139.8347  168.4040 O.3     1  UNL1       -0.4561
     26 N         137.6493  144.2902  162.4760 N.3     1  UNL1       -0.2926
     27 H         136.9097  144.5116  163.1427 H       1  UNL1        0.1236
     28 C         138.8082  145.1849  162.8022 C.3     1  UNL1        0.1152
     29 C         140.1892  144.6111  162.9187 C.ar    1  UNL1        0.0765
     30 C         140.7764  144.3383  164.2718 C.ar    1  UNL1        0.0193
     31 C         142.1573  143.7645  164.3882 C.ar    1  UNL1        0.0411
     32 C         142.9512  143.4635  163.1516 C.ar    1  UNL1        0.1708
     33 C         142.3641  143.7363  161.7985 C.ar    1  UNL1        0.1682
     34 N         140.9830  144.3102  161.6821 N.ar    1  UNL1       -0.2304
     35 N         143.1579  143.4353  160.5619 N.am    1  UNL1       -0.2639
     36 C         144.5389  142.8615  160.6784 C.2     1  UNL1        0.2718
     37 O         145.3327  142.5605  159.4418 O.2     1  UNL1       -0.2707
     38 C         145.1261  142.5887  162.0315 C.3     1  UNL1        0.2898
     39 O         144.3322  142.8897  163.2681 O.3     1  UNL1       -0.4628
     40 H         142.7725  143.6144  159.6739 H       1  UNL1        0.1565
@<TRIPOS>BOND
     1    24    25    1
     2    25    13    1
     3    13    14   ar
     4    14    15   ar
     5    15    16   ar
     6    16    17   ar
     7    17    18   ar
     8    18    19   ar
     9    19    20    1
    10    19    21   ar
    11    21    12    1
    12    12     9    1
    13     9    10    1
    14     9     1    1
    15     1     2    1
    16     2     3    1
    17     3     4    1
    18     4    26    1
    19    26    28    1
    20    28    29    1
    21    29    30   ar
    22    30    31   ar
    23    31    32   ar
    24    32    33   ar
    25    33    34   ar
    26    33    35    1
    27    35    36   am
    28    36    37    2
    29    36    38    1
    30    38    39    1
    31     4     5    1
    32     5     6    1
    33     4     7    1
    34     7     8    1
    35    21    22   ar
    36    22    23   ar
    37    23    13   ar
    38    22    16   ar
    39     6     1    1
    40     8     1    1
    41    34    29   ar
    42    39    32    1
    43    10    11    1
    44    26    27    1
    45    35    40    1
@<TRIPOS>MOLECULE
*****
 40 45 0 0 0
SMALL
GASTEIGER

@<TRIPOS>ATOM
      1 C         138.4828  140.0064  164.8291 C.3     1  UNL1        0.1177
      2 C         139.2783  140.9830  165.6435 C.3     1  UNL1        0.0310
      3 C         139.1793  142.4525  165.3596 C.3     1  UNL1        0.0194
      4 C         138.2846  142.9454  164.2611 C.3     1  UNL1        0.0700
      5 C         137.4890  141.9688  163.4466 C.3     1  UNL1        0.0194
      6 C         137.5881  140.4993  163.7306 C.3     1  UNL1        0.0310
      7 C         138.3060  142.1309  164.3795 C.3     1  UNL1        0.1563
      8 O         138.3956  140.8021  164.6363 O.3     1  UNL1       -0.3548
      9 C         138.5819  138.5369  165.1130 C.3     1  UNL1        0.1396
     10 O         138.0571  137.9857  166.4057 O.3     1  UNL1       -0.3817
     11 H         138.1985  137.0263  166.4292 H       1  UNL1        0.2105
     12 C         139.2057  137.6184  164.1043 C.3     1  UNL1        0.0619
     13 C         143.1995  138.6881  165.8806 C.ar    1  UNL1        0.2250
     14 C         144.3047  139.1848  164.9965 C.ar    1  UNL1        0.0593
     15 C         144.0787  139.3251  163.5203 C.ar    1  UNL1        0.0254
     16 C         142.7474  138.9685  162.9282 C.ar    1  UNL1        0.0990
     17 N         142.5214  139.1087  161.4520 N.ar    1  UNL1       -0.2400
     18 C         141.1902  138.7522  160.8599 C.ar    1  UNL1        0.1281
     19 C         140.0849  138.2554  161.7440 C.ar    1  UNL1        0.1567
     20 F         138.7536  137.8988  161.1519 F       1  UNL1       -0.2028
     21 C         140.3109  138.1152  163.2202 C.ar    1  UNL1        0.0285
     22 C         141.6422  138.4717  163.8123 C.ar    1  UNL1        0.1002
     23 N         141.8683  138.3315  165.2885 N.ar    1  UNL1       -0.2104
     24 C         142.6831  139.4299  168.3164 C.3     1  UNL1        0.2542
     25 O         143.4255  138.5479  167.3569 O.3     1  UNL1       -0.4561
     26 N         138.1855  144.4149  163.9771 N.3     1  UNL1       -0.2926
     27 H         138.5026  144.8992  164.8170 H       1  UNL1        0.1236
     28 C         138.9395  145.0086  162.8243 C.3     1  UNL1        0.1152
     29 C         140.3671  144.6178  162.5809 C.ar    1  UNL1        0.0765
     30 C         141.4637  145.2373  163.3957 C.ar    1  UNL1        0.0193
     31 C         142.8912  144.8465  163.1524 C.ar    1  UNL1        0.0411
     32 C         143.2223  143.8362  162.0942 C.ar    1  UNL1        0.1708
     33 C         142.1259  143.2167  161.2795 C.ar    1  UNL1        0.1682
     34 N         140.6982  143.6075  161.5228 N.ar    1  UNL1       -0.2304
     35 N         142.4570  142.2064  160.2213 N.am    1  UNL1       -0.2639
     36 C         143.8845  141.8156  159.9780 C.2     1  UNL1        0.2718
     37 O         144.2156  140.8052  158.9199 O.2     1  UNL1       -0.2707
     38 C         144.9811  142.4351  160.7928 C.3     1  UNL1        0.2898
     39 O         144.6500  143.4454  161.8509 O.3     1  UNL1       -0.4628
     40 H         141.7373  141.7998  159.6866 H       1  UNL1        0.1565
@<TRIPOS>BOND
     1    24    25    1
     2    25    13    1
     3    13    14   ar
     4    14    15   ar
     5    15    16   ar
     6    16    17   ar
     7    17    18   ar
     8    18    19   ar
     9    19    20    1
    10    19    21   ar
    11    21    12    1
    12    12     9    1
    13     9    10    1
    14     9     1    1
    15     1     2    1
    16     2     3    1
    17     3     4    1
    18     4    26    1
    19    26    28    1
    20    28    29    1
    21    29    30   ar
    22    30    31   ar
    23    31    32   ar
    24    32    33   ar
    25    33    34   ar
    26    33    35    1
    27    35    36   am
    28    36    37    2
    29    36    38    1
    30    38    39    1
    31     4     5    1
    32     5     6    1
    33     4     7    1
    34     7     8    1
    35    21    22   ar
    36    22    23   ar
    37    23    13   ar
    38    22    16   ar
    39     6     1    1
    40     8     1    1
    41    34    29   ar
    42    39    32    1
    43    10    11    1
    44    26    27    1
    45    35    40    1
