@<TRIPOS>MOLECULE
*****
 27 28 0 0 0
SMALL
GASTEIGER

@<TRIPOS>ATOM
      1 C         141.5731  143.8157  163.9870 C.ar    1  UNL1        0.1255
      2 C         142.5755  142.9875  164.7348 C.ar    1  UNL1        0.0233
      3 C         142.2019  142.3603  166.0452 C.ar    1  UNL1        0.0383
      4 C         140.8261  142.5613  166.6077 C.ar    1  UNL1        0.1387
      5 C         139.8237  143.3895  165.8599 C.ar    1  UNL1        0.0383
      6 C         140.1972  144.0167  164.5495 C.ar    1  UNL1        0.0233
      7 S         141.9466  144.4429  162.6766 S.O2    1  UNL1        0.0768
      8 O         141.1378  145.6566  163.0269 O.2     1  UNL1       -0.1498
      9 O         142.7554  143.2291  162.3262 O.2     1  UNL1       -0.1498
     10 N         141.8265  145.4880  158.8499 N.am    1  UNL1       -0.2894
     11 C         141.4530  144.8608  160.1603 C.2     1  UNL1        0.3194
     12 O         140.2122  144.0243  160.2648 O.2     1  UNL1       -0.2512
     13 N         142.3202  145.0700  161.3662 N.am    1  UNL1       -0.1693
     14 H         142.6409  146.0370  158.7813 H       1  UNL1        0.1509
     15 H         143.1345  145.6190  161.2976 H       1  UNL1        0.1781
     16 C         140.0108  146.3552  157.2064 C.3     1  UNL1        0.0213
     17 C         140.9593  145.2787  157.6440 C.3     1  UNL1        0.0732
     18 C         141.0405  143.9929  156.8758 C.3     1  UNL1        0.0213
     19 O         140.4525  141.9341  167.9181 O.3     1  UNL1       -0.4740
     20 C         140.1145  140.4741  167.9815 C.3     1  UNL1        0.2226
     21 C         139.2203  139.8655  166.9422 C.3     1  UNL1        0.1200
     22 N         139.8068  139.0226  165.8488 N.3     1  UNL1       -0.2696
     23 C         141.2929  138.8412  165.7569 C.3     1  UNL1        0.0722
     24 C         141.8794  137.9982  164.6634 C.3     1  UNL1        0.0174
     25 C         140.9797  137.3368  163.6619 C.3     1  UNL1        0.0029
     26 C         139.4935  137.5183  163.7538 C.3     1  UNL1        0.0174
     27 C         138.9071  138.3611  164.8473 C.3     1  UNL1        0.0722
@<TRIPOS>BOND
     1    16    17    1
     2    17    18    1
     3    17    10    1
     4    10    11   am
     5    11    12    2
     6    11    13   am
     7    13     7    1
     8     7     8    2
     9     7     9    2
    10     7     1    1
    11     1     2   ar
    12     2     3   ar
    13     3     4   ar
    14     4    19    1
    15    19    20    1
    16    20    21    1
    17    21    22    1
    18    22    23    1
    19    23    24    1
    20    24    25    1
    21    25    26    1
    22    26    27    1
    23     4     5   ar
    24     5     6   ar
    25     6     1   ar
    26    27    22    1
    27    10    14    1
    28    13    15    1
@<TRIPOS>MOLECULE
*****
 27 28 0 0 0
SMALL
GASTEIGER

@<TRIPOS>ATOM
      1 C         140.9672  144.2583  163.1645 C.ar    1  UNL1        0.1255
      2 C         139.6774  144.5696  163.8642 C.ar    1  UNL1        0.0233
      3 C         139.3760  143.9452  165.1943 C.ar    1  UNL1        0.0383
      4 C         140.3644  143.0095  165.8248 C.ar    1  UNL1        0.1387
      5 C         141.6542  142.6982  165.1252 C.ar    1  UNL1        0.0383
      6 C         141.9556  143.3226  163.7951 C.ar    1  UNL1        0.0233
      7 S         141.2687  144.8827  161.8344 S.O2    1  UNL1        0.0768
      8 O         142.1864  143.7423  161.5070 O.2     1  UNL1       -0.1498
      9 O         140.3510  146.0232  162.1618 O.2     1  UNL1       -0.1498
     10 N         140.9652  145.8813  158.0055 N.am    1  UNL1       -0.2894
     11 C         140.6637  145.2569  159.3356 C.2     1  UNL1        0.3194
     12 O         139.4559  144.3821  159.4970 O.2     1  UNL1       -0.2512
     13 N         141.5701  145.5071  160.5043 N.am    1  UNL1       -0.1693
     14 H         141.7579  146.4554  157.8995 H       1  UNL1        0.1509
     15 H         142.3628  146.0812  160.3983 H       1  UNL1        0.1781
     16 C         139.9862  144.2641  156.2232 C.3     1  UNL1        0.0213
     17 C         140.0587  145.6310  156.8368 C.3     1  UNL1        0.0732
     18 C         139.2250  146.7475  156.2817 C.3     1  UNL1        0.0213
     19 O         140.0629  142.3851  167.1549 O.3     1  UNL1       -0.4740
     20 C         140.1441  140.8965  167.3203 C.3     1  UNL1        0.2226
     21 C         139.2196  140.0043  166.5462 C.3     1  UNL1        0.1200
     22 N         139.7668  139.0997  165.4821 N.3     1  UNL1       -0.2696
     23 C         141.2271  138.7577  165.4665 C.3     1  UNL1        0.0722
     24 C         141.7743  137.8531  164.4024 C.3     1  UNL1        0.0174
     25 C         140.8610  137.2904  163.3539 C.3     1  UNL1        0.0029
     26 C         139.4006  137.6324  163.3695 C.3     1  UNL1        0.0174
     27 C         138.8535  138.5370  164.4336 C.3     1  UNL1        0.0722
@<TRIPOS>BOND
     1    16    17    1
     2    17    18    1
     3    17    10    1
     4    10    11   am
     5    11    12    2
     6    11    13   am
     7    13     7    1
     8     7     8    2
     9     7     9    2
    10     7     1    1
    11     1     2   ar
    12     2     3   ar
    13     3     4   ar
    14     4    19    1
    15    19    20    1
    16    20    21    1
    17    21    22    1
    18    22    23    1
    19    23    24    1
    20    24    25    1
    21    25    26    1
    22    26    27    1
    23     4     5   ar
    24     5     6   ar
    25     6     1   ar
    26    27    22    1
    27    10    14    1
    28    13    15    1
@<TRIPOS>MOLECULE
*****
 27 28 0 0 0
SMALL
GASTEIGER

@<TRIPOS>ATOM
      1 C         141.3533  140.6947  168.6088 C.ar    1  UNL1        0.1255
      2 C         140.4770  139.7187  167.8811 C.ar    1  UNL1        0.0233
      3 C         139.6149  140.1862  166.7461 C.ar    1  UNL1        0.0383
      4 C         139.6291  141.6297  166.3388 C.ar    1  UNL1        0.1387
      5 C         140.5054  142.6057  167.0664 C.ar    1  UNL1        0.0383
      6 C         141.3674  142.1382  168.2014 C.ar    1  UNL1        0.0233
      7 S         142.2154  140.2271  169.7438 S.O2    1  UNL1        0.0768
      8 O         143.3273  141.1122  169.2638 O.2     1  UNL1       -0.1498
      9 O         141.1035  139.3421  170.2237 O.2     1  UNL1       -0.1498
     10 N         144.6182  137.9564  171.9393 N.am    1  UNL1       -0.2894
     11 C         143.7561  138.4240  170.8043 C.2     1  UNL1        0.3194
     12 O         143.5727  137.5558  169.5948 O.2     1  UNL1       -0.2512
     13 N         143.0774  139.7596  170.8787 N.am    1  UNL1       -0.1693
     14 H         144.7386  138.5262  172.7331 H       1  UNL1        0.1509
     15 H         143.1978  140.3293  171.6725 H       1  UNL1        0.1781
     16 C         146.7931  136.5428  171.7926 C.3     1  UNL1        0.0213
     17 C         145.2969  136.6208  171.8648 C.3     1  UNL1        0.0732
     18 C         144.4793  135.3632  171.8625 C.3     1  UNL1        0.0213
     19 O         138.7670  142.0973  165.2038 O.3     1  UNL1       -0.4740
     20 C         139.0658  143.3996  164.5221 C.3     1  UNL1        0.2226
     21 C         139.7271  143.4070  163.1758 C.3     1  UNL1        0.1200
     22 N         141.1806  143.7579  163.0561 N.3     1  UNL1       -0.2696
     23 C         142.0245  143.1083  161.9999 C.3     1  UNL1        0.0722
     24 C         143.4780  143.4592  161.8802 C.3     1  UNL1        0.0174
     25 C         144.0876  144.4597  162.8169 C.3     1  UNL1        0.0029
     26 C         143.2436  145.1094  163.8732 C.3     1  UNL1        0.0174
     27 C         141.7902  144.7585  163.9928 C.3     1  UNL1        0.0722
@<TRIPOS>BOND
     1    16    17    1
     2    17    18    1
     3    17    10    1
     4    10    11   am
     5    11    12    2
     6    11    13   am
     7    13     7    1
     8     7     8    2
     9     7     9    2
    10     7     1    1
    11     1     2   ar
    12     2     3   ar
    13     3     4   ar
    14     4    19    1
    15    19    20    1
    16    20    21    1
    17    21    22    1
    18    22    23    1
    19    23    24    1
    20    24    25    1
    21    25    26    1
    22    26    27    1
    23     4     5   ar
    24     5     6   ar
    25     6     1   ar
    26    27    22    1
    27    10    14    1
    28    13    15    1
@<TRIPOS>MOLECULE
*****
 27 28 0 0 0
SMALL
GASTEIGER

@<TRIPOS>ATOM
      1 C         140.9426  143.8726  162.4074 C.ar    1  UNL1        0.1255
      2 C         140.5826  144.5513  163.6957 C.ar    1  UNL1        0.0233
      3 C         140.2233  143.7323  164.8999 C.ar    1  UNL1        0.0383
      4 C         140.2241  142.2347  164.8159 C.ar    1  UNL1        0.1387
      5 C         140.5841  141.5561  163.5276 C.ar    1  UNL1        0.0383
      6 C         140.9434  142.3750  162.3233 C.ar    1  UNL1        0.0233
      7 S         141.3019  144.6916  161.2031 S.O2    1  UNL1        0.0768
      8 O         140.4099  145.7958  161.6879 O.2     1  UNL1       -0.1498
      9 O         142.1939  143.5873  160.7183 O.2     1  UNL1       -0.1498
     10 N         141.1764  146.2536  157.5570 N.am    1  UNL1       -0.2894
     11 C         140.8171  145.4346  158.7613 C.2     1  UNL1        0.3194
     12 O         139.6136  144.5398  158.7279 O.2     1  UNL1       -0.2512
     13 N         141.6612  145.5105  159.9989 N.am    1  UNL1       -0.1693
     14 H         141.9662  146.8409  157.5789 H       1  UNL1        0.1509
     15 H         142.4510  146.0978  160.0208 H       1  UNL1        0.1781
     16 C         140.6179  145.1351  155.2794 C.3     1  UNL1        0.0213
     17 C         140.3322  146.1777  156.3193 C.3     1  UNL1        0.0732
     18 C         139.2023  147.1443  156.1217 C.3     1  UNL1        0.0213
     19 O         139.8648  141.4158  166.0202 O.3     1  UNL1       -0.4740
     20 C         140.8521  140.4370  166.5833 C.3     1  UNL1        0.2226
     21 C         142.2384  140.8888  166.9355 C.3     1  UNL1        0.1200
     22 N         143.2766  141.0302  165.8620 N.3     1  UNL1       -0.2696
     23 C         143.7996  142.3883  165.4988 C.3     1  UNL1        0.0722
     24 C         144.8377  142.5298  164.4253 C.3     1  UNL1        0.0174
     25 C         145.3528  141.3131  163.7151 C.3     1  UNL1        0.0029
     26 C         144.8298  139.9549  164.0784 C.3     1  UNL1        0.0174
     27 C         143.7917  139.8135  165.1519 C.3     1  UNL1        0.0722
@<TRIPOS>BOND
     1    16    17    1
     2    17    18    1
     3    17    10    1
     4    10    11   am
     5    11    12    2
     6    11    13   am
     7    13     7    1
     8     7     8    2
     9     7     9    2
    10     7     1    1
    11     1     2   ar
    12     2     3   ar
    13     3     4   ar
    14     4    19    1
    15    19    20    1
    16    20    21    1
    17    21    22    1
    18    22    23    1
    19    23    24    1
    20    24    25    1
    21    25    26    1
    22    26    27    1
    23     4     5   ar
    24     5     6   ar
    25     6     1   ar
    26    27    22    1
    27    10    14    1
    28    13    15    1
@<TRIPOS>MOLECULE
*****
 27 28 0 0 0
SMALL
GASTEIGER

@<TRIPOS>ATOM
      1 C         138.4637  139.1371  163.4988 C.ar    1  UNL1        0.1255
      2 C         137.9314  140.2896  162.6999 C.ar    1  UNL1        0.0233
      3 C         138.0610  140.2897  161.2055 C.ar    1  UNL1        0.0383
      4 C         138.7229  139.1372  160.5100 C.ar    1  UNL1        0.1387
      5 C         139.2551  137.9847  161.3090 C.ar    1  UNL1        0.0383
      6 C         139.1255  137.9846  162.8034 C.ar    1  UNL1        0.0233
      7 S         138.3340  139.1370  164.9932 S.O2    1  UNL1        0.0768
      8 O         137.8344  140.5507  164.9499 O.2     1  UNL1       -0.1498
      9 O         138.8337  137.7234  165.0365 O.2     1  UNL1       -0.1498
     10 N         139.1495  139.7527  168.8280 N.am    1  UNL1       -0.2894
     11 C         139.2791  139.7527  167.3336 C.2     1  UNL1        0.3194
     12 O         140.4835  140.3686  166.6853 O.2     1  UNL1       -0.2512
     13 N         138.2044  139.1370  166.4876 N.am    1  UNL1       -0.1693
     14 H         138.3591  139.3485  169.2536 H       1  UNL1        0.1509
     15 H         137.4140  138.7328  166.9131 H       1  UNL1        0.1781
     16 C         140.0727  141.7751  170.1725 C.3     1  UNL1        0.0213
     17 C         140.2243  140.3685  169.6741 C.3     1  UNL1        0.0732
     18 C         141.4505  139.5776  170.0218 C.3     1  UNL1        0.0213
     19 O         138.8525  139.1373  159.0156 O.3     1  UNL1       -0.4740
     20 C         140.1656  138.7944  158.3767 C.3     1  UNL1        0.2226
     21 C         141.3831  139.6179  158.6761 C.3     1  UNL1        0.1200
     22 N         142.1846  139.3486  159.9151 N.3     1  UNL1       -0.2696
     23 C         142.1428  140.3163  161.0604 C.3     1  UNL1        0.0722
     24 C         142.9443  140.0470  162.2995 C.3     1  UNL1        0.0174
     25 C         143.7875  138.8100  162.3931 C.3     1  UNL1        0.0029
     26 C         143.8293  137.8423  161.2477 C.3     1  UNL1        0.0174
     27 C         143.0278  138.1116  160.0087 C.3     1  UNL1        0.0722
@<TRIPOS>BOND
     1    16    17    1
     2    17    18    1
     3    17    10    1
     4    10    11   am
     5    11    12    2
     6    11    13   am
     7    13     7    1
     8     7     8    2
     9     7     9    2
    10     7     1    1
    11     1     2   ar
    12     2     3   ar
    13     3     4   ar
    14     4    19    1
    15    19    20    1
    16    20    21    1
    17    21    22    1
    18    22    23    1
    19    23    24    1
    20    24    25    1
    21    25    26    1
    22    26    27    1
    23     4     5   ar
    24     5     6   ar
    25     6     1   ar
    26    27    22    1
    27    10    14    1
    28    13    15    1
@<TRIPOS>MOLECULE
*****
 27 28 0 0 0
SMALL
GASTEIGER

@<TRIPOS>ATOM
      1 C         141.2862  139.6397  168.6937 C.ar    1  UNL1        0.1255
      2 C         139.8478  139.8805  169.0443 C.ar    1  UNL1        0.0233
      3 C         138.8213  140.0031  167.9575 C.ar    1  UNL1        0.0383
      4 C         139.2331  139.8849  166.5200 C.ar    1  UNL1        0.1387
      5 C         140.6715  139.6441  166.1694 C.ar    1  UNL1        0.0383
      6 C         141.6980  139.5215  167.2562 C.ar    1  UNL1        0.0233
      7 S         142.3127  139.5171  169.7805 S.O2    1  UNL1        0.0768
      8 O         143.3366  140.1489  168.8847 O.2     1  UNL1       -0.1498
      9 O         141.2888  138.8852  170.6763 O.2     1  UNL1       -0.1498
     10 N         145.1156  137.9856  172.1359 N.am    1  UNL1       -0.2894
     11 C         144.0891  138.1082  171.0491 C.2     1  UNL1        0.3194
     12 O         143.8124  136.9444  170.1440 O.2     1  UNL1       -0.2512
     13 N         143.3392  139.3945  170.8673 N.am    1  UNL1       -0.1693
     14 H         145.2972  138.7494  172.7300 H       1  UNL1        0.1509
     15 H         143.5208  140.1583  171.4613 H       1  UNL1        0.1781
     16 C         147.2447  136.5481  171.7477 C.3     1  UNL1        0.0213
     17 C         145.8655  136.6992  172.3177 C.3     1  UNL1        0.0732
     18 C         145.2361  135.5639  173.0694 C.3     1  UNL1        0.0213
     19 O         138.2066  140.0075  165.4332 O.3     1  UNL1       -0.4740
     20 C         138.5295  139.5505  164.0415 C.3     1  UNL1        0.2226
     21 C         138.8575  140.5570  162.9787 C.3     1  UNL1        0.1200
     22 N         138.9320  142.0149  163.3239 N.3     1  UNL1       -0.2696
     23 C         140.1730  142.5739  163.9543 C.3     1  UNL1        0.0722
     24 C         140.2475  144.0318  164.2995 C.3     1  UNL1        0.0174
     25 C         139.0811  144.9306  164.0141 C.3     1  UNL1        0.0029
     26 C         137.8401  144.3716  163.3836 C.3     1  UNL1        0.0174
     27 C         137.7656  142.9138  163.0385 C.3     1  UNL1        0.0722
@<TRIPOS>BOND
     1    16    17    1
     2    17    18    1
     3    17    10    1
     4    10    11   am
     5    11    12    2
     6    11    13   am
     7    13     7    1
     8     7     8    2
     9     7     9    2
    10     7     1    1
    11     1     2   ar
    12     2     3   ar
    13     3     4   ar
    14     4    19    1
    15    19    20    1
    16    20    21    1
    17    21    22    1
    18    22    23    1
    19    23    24    1
    20    24    25    1
    21    25    26    1
    22    26    27    1
    23     4     5   ar
    24     5     6   ar
    25     6     1   ar
    26    27    22    1
    27    10    14    1
    28    13    15    1
@<TRIPOS>MOLECULE
*****
 27 28 0 0 0
SMALL
GASTEIGER

@<TRIPOS>ATOM
      1 C         138.7695  138.8468  163.3123 C.ar    1  UNL1        0.1255
      2 C         138.9361  137.6180  164.1563 C.ar    1  UNL1        0.0233
      3 C         138.8349  137.7146  165.6497 C.ar    1  UNL1        0.0383
      4 C         138.5672  139.0399  166.2992 C.ar    1  UNL1        0.1387
      5 C         138.4006  140.2686  165.4552 C.ar    1  UNL1        0.0383
      6 C         138.5017  140.1721  163.9617 C.ar    1  UNL1        0.0233
      7 S         138.8706  138.7502  161.8188 S.O2    1  UNL1        0.0768
      8 O         140.2883  139.2358  161.8834 O.2     1  UNL1       -0.1498
      9 O         137.4528  138.2646  161.7542 O.2     1  UNL1       -0.1498
     10 N         138.6648  139.7192  157.9758 N.am    1  UNL1       -0.2894
     11 C         138.5637  139.8158  159.4693 C.2     1  UNL1        0.3194
     12 O         138.0544  141.0746  160.1067 O.2     1  UNL1       -0.2512
     13 N         138.9717  138.6537  160.3253 N.am    1  UNL1       -0.1693
     14 H         138.9990  138.8931  157.5575 H       1  UNL1        0.1509
     15 H         139.3059  137.8275  159.9070 H       1  UNL1        0.1781
     16 C         139.2945  141.8335  156.6035 C.3     1  UNL1        0.0213
     17 C         138.2567  140.8815  157.1198 C.3     1  UNL1        0.0732
     18 C         136.8109  141.0916  156.7801 C.3     1  UNL1        0.0213
     19 O         138.4660  139.1364  167.7927 O.3     1  UNL1       -0.4740
     20 C         139.3011  140.1350  168.5380 C.3     1  UNL1        0.2226
     21 C         140.7859  139.9464  168.6364 C.3     1  UNL1        0.1200
     22 N         141.6669  140.3134  167.4791 N.3     1  UNL1       -0.2696
     23 C         141.8460  141.7535  167.0999 C.3     1  UNL1        0.0722
     24 C         142.7270  142.1205  165.9426 C.3     1  UNL1        0.0174
     25 C         143.4289  141.0472  165.1645 C.3     1  UNL1        0.0029
     26 C         143.2498  139.6070  165.5438 C.3     1  UNL1        0.0174
     27 C         142.3688  139.2401  166.7010 C.3     1  UNL1        0.0722
@<TRIPOS>BOND
     1    16    17    1
     2    17    18    1
     3    17    10    1
     4    10    11   am
     5    11    12    2
     6    11    13   am
     7    13     7    1
     8     7     8    2
     9     7     9    2
    10     7     1    1
    11     1     2   ar
    12     2     3   ar
    13     3     4   ar
    14     4    19    1
    15    19    20    1
    16    20    21    1
    17    21    22    1
    18    22    23    1
    19    23    24    1
    20    24    25    1
    21    25    26    1
    22    26    27    1
    23     4     5   ar
    24     5     6   ar
    25     6     1   ar
    26    27    22    1
    27    10    14    1
    28    13    15    1
@<TRIPOS>MOLECULE
*****
 27 28 0 0 0
SMALL
GASTEIGER

@<TRIPOS>ATOM
      1 C         139.3929  143.0233  163.1742 C.ar    1  UNL1        0.1255
      2 C         140.6527  142.4654  163.7671 C.ar    1  UNL1        0.0233
      3 C         140.5776  141.4285  164.8484 C.ar    1  UNL1        0.0383
      4 C         139.2427  140.9496  165.3368 C.ar    1  UNL1        0.1387
      5 C         137.9829  141.5075  164.7439 C.ar    1  UNL1        0.0383
      6 C         138.0580  142.5444  163.6626 C.ar    1  UNL1        0.0233
      7 S         139.4680  144.0602  162.0929 S.O2    1  UNL1        0.0768
      8 O         140.8339  144.4575  162.5687 O.2     1  UNL1       -0.1498
      9 O         138.1021  143.6629  161.6170 O.2     1  UNL1       -0.1498
     10 N         140.1865  145.7785  158.5884 N.am    1  UNL1       -0.2894
     11 C         140.1114  144.7416  159.6697 C.2     1  UNL1        0.3194
     12 O         140.6046  143.3491  159.4091 O.2     1  UNL1       -0.2512
     13 N         139.5431  145.0971  161.0116 N.am    1  UNL1       -0.1693
     14 H         139.8628  146.6924  158.7594 H       1  UNL1        0.1509
     15 H         139.2194  146.0110  161.1826 H       1  UNL1        0.1781
     16 C         142.2135  145.6362  156.9694 C.3     1  UNL1        0.0213
     17 C         140.7548  145.4229  157.2465 C.3     1  UNL1        0.0732
     18 C         139.8645  144.8541  156.1818 C.3     1  UNL1        0.0213
     19 O         139.1676  139.9127  166.4181 O.3     1  UNL1       -0.4740
     20 C         138.2029  138.7706  166.2963 C.3     1  UNL1        0.2226
     21 C         138.5847  137.5459  165.5190 C.3     1  UNL1        0.1200
     22 N         139.4137  137.6750  164.2755 N.3     1  UNL1       -0.2696
     23 C         138.7505  137.9366  162.9558 C.3     1  UNL1        0.0722
     24 C         139.5794  138.0657  161.7123 C.3     1  UNL1        0.0174
     25 C         141.0716  137.9332  161.7886 C.3     1  UNL1        0.0029
     26 C         141.7349  137.6716  163.1084 C.3     1  UNL1        0.0174
     27 C         140.9059  137.5425  164.3518 C.3     1  UNL1        0.0722
@<TRIPOS>BOND
     1    16    17    1
     2    17    18    1
     3    17    10    1
     4    10    11   am
     5    11    12    2
     6    11    13   am
     7    13     7    1
     8     7     8    2
     9     7     9    2
    10     7     1    1
    11     1     2   ar
    12     2     3   ar
    13     3     4   ar
    14     4    19    1
    15    19    20    1
    16    20    21    1
    17    21    22    1
    18    22    23    1
    19    23    24    1
    20    24    25    1
    21    25    26    1
    22    26    27    1
    23     4     5   ar
    24     5     6   ar
    25     6     1   ar
    26    27    22    1
    27    10    14    1
    28    13    15    1
@<TRIPOS>MOLECULE
*****
 27 28 0 0 0
SMALL
GASTEIGER

@<TRIPOS>ATOM
      1 C         142.1447  143.8763  163.9239 C.ar    1  UNL1        0.1255
      2 C         140.9744  143.4711  164.7700 C.ar    1  UNL1        0.0233
      3 C         141.1977  142.7184  166.0481 C.ar    1  UNL1        0.0383
      4 C         142.5915  142.3708  166.4800 C.ar    1  UNL1        0.1387
      5 C         143.7619  142.7760  165.6339 C.ar    1  UNL1        0.0383
      6 C         143.5385  143.5287  164.3558 C.ar    1  UNL1        0.0233
      7 S         141.9213  144.6290  162.6458 S.O2    1  UNL1        0.0768
      8 O         143.4027  144.6762  162.4147 O.2     1  UNL1       -0.1498
      9 O         140.4400  144.5819  162.8769 O.2     1  UNL1       -0.1498
     10 N         141.2821  145.3876  158.8031 N.am    1  UNL1       -0.2894
     11 C         141.5055  144.6348  160.0812 C.2     1  UNL1        0.3194
     12 O         141.5364  143.1351  160.0728 O.2     1  UNL1       -0.2512
     13 N         141.6980  145.3817  161.3677 N.am    1  UNL1       -0.1693
     14 H         141.2618  146.3718  158.8086 H       1  UNL1        0.1509
     15 H         141.6777  146.3660  161.3732 H       1  UNL1        0.1781
     16 C         139.7409  144.0858  157.1660 C.3     1  UNL1        0.0213
     17 C         141.0897  144.6406  157.5166 C.3     1  UNL1        0.0732
     18 C         142.2460  144.4484  156.5808 C.3     1  UNL1        0.0213
     19 O         142.8149  141.6181  167.7581 O.3     1  UNL1       -0.4740
     20 C         142.6064  140.1333  167.8003 C.3     1  UNL1        0.2226
     21 C         142.7850  139.3152  166.5558 C.3     1  UNL1        0.1200
     22 N         141.5846  138.8025  165.8167 N.3     1  UNL1       -0.2696
     23 C         141.7573  137.8249  164.6922 C.3     1  UNL1        0.0722
     24 C         140.5569  137.3122  163.9531 C.3     1  UNL1        0.0174
     25 C         139.1838  137.7771  164.3385 C.3     1  UNL1        0.0029
     26 C         139.0111  138.7547  165.4630 C.3     1  UNL1        0.0174
     27 C         140.2115  139.2674  166.2021 C.3     1  UNL1        0.0722
@<TRIPOS>BOND
     1    16    17    1
     2    17    18    1
     3    17    10    1
     4    10    11   am
     5    11    12    2
     6    11    13   am
     7    13     7    1
     8     7     8    2
     9     7     9    2
    10     7     1    1
    11     1     2   ar
    12     2     3   ar
    13     3     4   ar
    14     4    19    1
    15    19    20    1
    16    20    21    1
    17    21    22    1
    18    22    23    1
    19    23    24    1
    20    24    25    1
    21    25    26    1
    22    26    27    1
    23     4     5   ar
    24     5     6   ar
    25     6     1   ar
    26    27    22    1
    27    10    14    1
    28    13    15    1
