@<TRIPOS>MOLECULE
*****
 51 58 0 0 0
SMALL
GASTEIGER

@<TRIPOS>ATOM
      1 C         139.2789  142.0170  164.8696 C.ar    1  UNL1        0.1335
      2 C         138.4358  143.2156  164.5492 C.ar    1  UNL1        0.0360
      3 C         138.1107  143.5439  163.1221 C.ar    1  UNL1        0.0251
      4 C         138.6287  142.6738  162.0155 C.ar    1  UNL1        0.1171
      5 N         138.3035  143.0022  160.5885 N.ar    1  UNL1       -0.2407
      6 C         138.8215  142.1321  159.4819 C.ar    1  UNL1        0.0989
      7 C         139.6646  140.9335  159.8023 C.ar    1  UNL1        0.1005
      8 N         139.9897  140.6051  161.2293 N.ar    1  UNL1       -0.2237
      9 C         139.4717  141.4753  162.3359 C.ar    1  UNL1        0.1814
     10 N         139.7968  141.1469  163.7630 N.ar    1  UNL1       -0.2104
     11 N         140.2543  141.0317  169.1507 N.3     1  UNL1       -0.2677
     12 C         140.6162  142.3746  168.5890 C.3     1  UNL1        0.0939
     13 C         140.2910  142.7031  167.1619 C.3     1  UNL1        0.1095
     14 N         139.6040  141.6886  166.2966 N.pl3   1  UNL1       -0.2903
     15 C         139.2422  140.3456  166.8583 C.3     1  UNL1        0.1095
     16 C         139.5673  140.0171  168.2853 C.3     1  UNL1        0.0939
     17 C         140.5794  140.7032  170.5777 C.3     1  UNL1        0.1043
     18 O         142.0830  142.2971  171.9737 O.3     1  UNL1       -0.3805
     19 C         141.9229  141.0591  171.1419 C.3     1  UNL1        0.1544
     20 H         143.0070  142.3788  172.2573 H       1  UNL1        0.2105
     21 C         138.4963  142.4605  158.0548 C.ar    1  UNL1        0.0191
     22 C         137.3628  141.7619  157.3639 C.ar    1  UNL1        0.0015
     23 C         137.0377  142.0903  155.9369 C.ar    1  UNL1        0.0000
     24 C         137.8461  143.1172  155.2007 C.ar    1  UNL1        0.0000
     25 C         138.9795  143.8158  155.8915 C.ar    1  UNL1        0.0000
     26 C         139.3047  143.4874  157.3186 C.ar    1  UNL1        0.0015
     27 C         140.1825  140.0634  158.6957 C.ar    1  UNL1        0.0192
     28 C         141.4158  140.4638  157.9415 C.ar    1  UNL1        0.0013
     29 C         141.9337  139.5936  156.8349 C.ar    1  UNL1       -0.0029
     30 C         141.2184  138.3231  156.4825 C.ar    1  UNL1       -0.0061
     31 C         139.9852  137.9227  157.2368 C.ar    1  UNL1       -0.0029
     32 C         139.4673  138.7929  158.3434 C.ar    1  UNL1        0.0013
     33 C         141.7364  137.4529  155.3759 C.3     1  UNL1        0.0991
     34 N         142.0648  136.0141  155.6444 N.3     1  UNL1       -0.2689
     35 C         143.2415  135.6614  156.5052 C.3     1  UNL1        0.0728
     36 C         143.5699  134.2226  156.7737 C.3     1  UNL1        0.0249
     37 C         142.7217  133.1365  156.1813 C.3     1  UNL1        0.0613
     38 C         141.5450  133.4893  155.3205 C.3     1  UNL1        0.0249
     39 C         141.2166  134.9280  155.0520 C.3     1  UNL1        0.0728
     40 C         143.0501  131.6978  156.4498 C.ar    1  UNL1        0.1396
     41 N         143.2735  130.6363  155.4138 N.ar    1  UNL1       -0.1335
     42 N         143.5742  129.3503  156.1251 N.ar    1  UNL1       -0.1277
     43 C         143.5366  129.6171  157.6007 C.ar    1  UNL1        0.1807
     44 N         143.2127  131.0679  157.8014 N.ar    1  UNL1       -0.3234
     45 H         143.1226  131.5262  158.6680 H       1  UNL1        0.1686
     46 C         143.7802  128.6099  158.6853 C.ar    1  UNL1        0.1169
     47 C         142.6266  127.8690  159.2936 C.ar    1  UNL1        0.0223
     48 C         142.8702  126.8618  160.3781 C.ar    1  UNL1        0.0032
     49 C         144.2674  126.5955  160.8544 C.ar    1  UNL1        0.0207
     50 C         145.4211  127.3365  160.2460 C.ar    1  UNL1        0.0989
     51 N         145.1775  128.3437  159.1615 N.ar    1  UNL1       -0.2407
@<TRIPOS>BOND
     1    18    19    1
     2    19    17    1
     3    17    11    1
     4    11    12    1
     5    12    13    1
     6    13    14    1
     7    14     1    1
     8     1     2   ar
     9     2     3   ar
    10     3     4   ar
    11     4     5   ar
    12     5     6   ar
    13     6    21    1
    14    21    22   ar
    15    22    23   ar
    16    23    24   ar
    17    24    25   ar
    18    25    26   ar
    19     6     7   ar
    20     7    27    1
    21    27    28   ar
    22    28    29   ar
    23    29    30   ar
    24    30    33    1
    25    33    34    1
    26    34    35    1
    27    35    36    1
    28    36    37    1
    29    37    40    1
    30    40    41   ar
    31    41    42   ar
    32    42    43   ar
    33    43    46    1
    34    46    47   ar
    35    47    48   ar
    36    48    49   ar
    37    49    50   ar
    38    50    51   ar
    39    43    44   ar
    40    37    38    1
    41    38    39    1
    42    30    31   ar
    43    31    32   ar
    44     7     8   ar
    45     8     9   ar
    46     9    10   ar
    47    14    15    1
    48    15    16    1
    49    16    11    1
    50    10     1   ar
    51     9     4   ar
    52    26    21   ar
    53    32    27   ar
    54    39    34    1
    55    44    40   ar
    56    51    46   ar
    57    18    20    1
    58    44    45    1
@<TRIPOS>MOLECULE
*****
 51 58 0 0 0
SMALL
GASTEIGER

@<TRIPOS>ATOM
      1 C         142.8693  142.1205  164.0974 C.ar    1  UNL1        0.1335
      2 C         144.0232  142.9985  163.7131 C.ar    1  UNL1        0.0360
      3 C         144.1182  143.5447  162.3194 C.ar    1  UNL1        0.0251
      4 C         143.0595  143.2131  161.3100 C.ar    1  UNL1        0.1171
      5 N         143.1546  143.7594  159.9162 N.ar    1  UNL1       -0.2407
      6 C         142.0958  143.4277  158.9067 C.ar    1  UNL1        0.0989
      7 C         140.9419  142.5497  159.2911 C.ar    1  UNL1        0.1005
      8 N         140.8468  142.0034  160.6848 N.ar    1  UNL1       -0.2237
      9 C         141.9056  142.3351  161.6942 C.ar    1  UNL1        0.1814
     10 N         141.8105  141.7888  163.0880 N.ar    1  UNL1       -0.2104
     11 N         142.5839  140.4815  168.2786 N.3     1  UNL1       -0.2677
     12 C         142.9547  141.9184  168.0600 C.3     1  UNL1        0.0939
     13 C         143.0498  142.4648  166.6662 C.3     1  UNL1        0.1095
     14 N         142.7741  141.5742  165.4912 N.pl3   1  UNL1       -0.2903
     15 C         142.4034  140.1373  165.7098 C.3     1  UNL1        0.1095
     16 C         142.3082  139.5909  167.1035 C.3     1  UNL1        0.0939
     17 C         142.4887  139.9352  169.6723 C.3     1  UNL1        0.1043
     18 O         142.2313  140.6640  172.1528 O.3     1  UNL1       -0.3805
     19 C         141.7552  140.7042  170.7309 C.3     1  UNL1        0.1544
     20 H         141.6499  141.2109  172.7040 H       1  UNL1        0.2105
     21 C         142.1909  143.9740  157.5130 C.ar    1  UNL1        0.0191
     22 C         142.9317  143.2090  156.4565 C.ar    1  UNL1        0.0015
     23 C         143.0268  143.7553  155.0628 C.ar    1  UNL1        0.0000
     24 C         142.3811  145.0665  154.7255 C.ar    1  UNL1        0.0000
     25 C         141.6403  145.8315  155.7819 C.ar    1  UNL1        0.0000
     26 C         141.5452  145.2852  157.1757 C.ar    1  UNL1        0.0015
     27 C         139.8831  142.2180  158.2817 C.ar    1  UNL1        0.0192
     28 C         140.0023  140.9750  157.4506 C.ar    1  UNL1        0.0013
     29 C         138.9435  140.6433  156.4411 C.ar    1  UNL1       -0.0029
     30 C         137.7655  141.5547  156.2628 C.ar    1  UNL1       -0.0061
     31 C         137.6463  142.7977  157.0939 C.ar    1  UNL1       -0.0029
     32 C         138.7051  143.1293  158.1033 C.ar    1  UNL1        0.0013
     33 C         136.7067  141.2230  155.2534 C.3     1  UNL1        0.0991
     34 N         135.3112  140.9097  155.7056 N.3     1  UNL1       -0.2689
     35 C         135.0889  140.0002  156.8774 C.3     1  UNL1        0.0728
     36 C         133.6934  139.6869  157.3296 C.3     1  UNL1        0.0249
     37 C         132.5202  140.2833  156.6099 C.3     1  UNL1        0.0613
     38 C         132.7425  141.1929  155.4380 C.3     1  UNL1        0.0249
     39 C         134.1380  141.5061  154.9859 C.3     1  UNL1        0.0728
     40 C         131.1247  139.9700  157.0621 C.ar    1  UNL1        0.1396
     41 N         129.8597  140.3910  156.3746 N.ar    1  UNL1       -0.1335
     42 N         128.7024  139.8620  157.1687 N.ar    1  UNL1       -0.1277
     43 C         129.2521  139.1141  158.3471 C.ar    1  UNL1        0.1807
     44 N         130.7491  139.1809  158.2812 N.ar    1  UNL1       -0.3234
     45 H         131.3753  138.7775  158.9250 H       1  UNL1        0.1686
     46 C         128.4462  138.4210  159.4055 C.ar    1  UNL1        0.1169
     47 C         128.0888  136.9728  159.2480 C.ar    1  UNL1        0.0223
     48 C         127.2829  136.2797  160.3064 C.ar    1  UNL1        0.0032
     49 C         126.8344  137.0349  161.5224 C.ar    1  UNL1        0.0207
     50 C         127.1919  138.4833  161.6799 C.ar    1  UNL1        0.0989
     51 N         127.9977  139.1762  160.6215 N.ar    1  UNL1       -0.2407
@<TRIPOS>BOND
     1    18    19    1
     2    19    17    1
     3    17    11    1
     4    11    12    1
     5    12    13    1
     6    13    14    1
     7    14     1    1
     8     1     2   ar
     9     2     3   ar
    10     3     4   ar
    11     4     5   ar
    12     5     6   ar
    13     6    21    1
    14    21    22   ar
    15    22    23   ar
    16    23    24   ar
    17    24    25   ar
    18    25    26   ar
    19     6     7   ar
    20     7    27    1
    21    27    28   ar
    22    28    29   ar
    23    29    30   ar
    24    30    33    1
    25    33    34    1
    26    34    35    1
    27    35    36    1
    28    36    37    1
    29    37    40    1
    30    40    41   ar
    31    41    42   ar
    32    42    43   ar
    33    43    46    1
    34    46    47   ar
    35    47    48   ar
    36    48    49   ar
    37    49    50   ar
    38    50    51   ar
    39    43    44   ar
    40    37    38    1
    41    38    39    1
    42    30    31   ar
    43    31    32   ar
    44     7     8   ar
    45     8     9   ar
    46     9    10   ar
    47    14    15    1
    48    15    16    1
    49    16    11    1
    50    10     1   ar
    51     9     4   ar
    52    26    21   ar
    53    32    27   ar
    54    39    34    1
    55    44    40   ar
    56    51    46   ar
    57    18    20    1
    58    44    45    1
@<TRIPOS>MOLECULE
*****
 51 58 0 0 0
SMALL
GASTEIGER

@<TRIPOS>ATOM
      1 C         133.7497  140.6025  155.6164 C.ar    1  UNL1        0.1335
      2 C         133.9151  141.2105  154.2552 C.ar    1  UNL1        0.0360
      3 C         135.2880  141.5008  153.7253 C.ar    1  UNL1        0.0251
      4 C         136.4955  141.1831  154.5567 C.ar    1  UNL1        0.1171
      5 N         137.8684  141.4734  154.0267 N.ar    1  UNL1       -0.2407
      6 C         139.0759  141.1557  154.8580 C.ar    1  UNL1        0.0989
      7 C         138.9104  140.5477  156.2193 C.ar    1  UNL1        0.1005
      8 N         137.5375  140.2574  156.7492 N.ar    1  UNL1       -0.2237
      9 C         136.3300  140.5751  155.9179 C.ar    1  UNL1        0.1814
     10 N         134.9571  140.2848  156.4477 N.ar    1  UNL1       -0.2104
     11 N         129.6309  139.7314  157.2063 N.3     1  UNL1       -0.2677
     12 C         129.8206  140.7775  156.1482 C.3     1  UNL1        0.0939
     13 C         131.1936  141.0679  155.6182 C.3     1  UNL1        0.1095
     14 N         132.3767  140.3121  156.1464 N.pl3   1  UNL1       -0.2903
     15 C         132.1870  139.2660  157.2045 C.3     1  UNL1        0.1095
     16 C         130.8141  138.9757  157.7345 C.3     1  UNL1        0.0939
     17 C         128.2580  139.4411  157.7363 C.3     1  UNL1        0.1043
     18 O         128.6314  139.8125  160.2805 O.3     1  UNL1       -0.3805
     19 C         127.8166  140.0353  159.0408 C.3     1  UNL1        0.1544
     20 H         128.2094  140.2612  161.0297 H       1  UNL1        0.2105
     21 C         140.4488  141.4461  154.3281 C.ar    1  UNL1        0.0191
     22 C         141.2086  140.3831  153.5913 C.ar    1  UNL1        0.0015
     23 C         142.5815  140.6734  153.0614 C.ar    1  UNL1        0.0000
     24 C         143.1946  142.0266  153.2683 C.ar    1  UNL1        0.0000
     25 C         142.4349  143.0896  154.0051 C.ar    1  UNL1        0.0000
     26 C         141.0619  142.7993  154.5350 C.ar    1  UNL1        0.0015
     27 C         140.1179  140.2300  157.0506 C.ar    1  UNL1        0.0192
     28 C         140.7431  138.8685  156.9754 C.ar    1  UNL1        0.0013
     29 C         141.9506  138.5508  157.8067 C.ar    1  UNL1       -0.0029
     30 C         142.5328  139.5946  158.7132 C.ar    1  UNL1       -0.0061
     31 C         141.9075  140.9559  158.7884 C.ar    1  UNL1       -0.0029
     32 C         140.7001  141.2736  157.9571 C.ar    1  UNL1        0.0013
     33 C         143.7403  139.2769  159.5445 C.3     1  UNL1        0.0991
     34 N         143.6299  139.2286  161.0397 N.3     1  UNL1       -0.2689
     35 C         142.7067  138.2428  161.6921 C.3     1  UNL1        0.0728
     36 C         142.5963  138.1945  163.1873 C.3     1  UNL1        0.0249
     37 C         143.4091  139.1321  164.0300 C.3     1  UNL1        0.0613
     38 C         144.3324  140.1180  163.3775 C.3     1  UNL1        0.0249
     39 C         144.4427  140.1663  161.8824 C.3     1  UNL1        0.0728
     40 C         143.2988  139.0839  165.5252 C.ar    1  UNL1        0.1396
     41 N         143.8620  138.0174  166.4169 N.ar    1  UNL1       -0.1335
     42 N         143.5172  138.3680  167.8340 N.ar    1  UNL1       -0.1277
     43 C         142.7407  139.6514  167.8180 C.ar    1  UNL1        0.1807
     44 N         142.6057  140.0938  166.3911 N.ar    1  UNL1       -0.3234
     45 H         142.1435  140.9046  166.0779 H       1  UNL1        0.1686
     46 C         142.1950  140.3667  169.0182 C.ar    1  UNL1        0.1169
     47 C         142.8020  141.6664  169.4569 C.ar    1  UNL1        0.0223
     48 C         142.2563  142.3817  170.6572 C.ar    1  UNL1        0.0032
     49 C         141.1036  141.7974  171.4187 C.ar    1  UNL1        0.0207
     50 C         140.4966  140.4976  170.9799 C.ar    1  UNL1        0.0989
     51 N         141.0423  139.7824  169.7798 N.ar    1  UNL1       -0.2407
@<TRIPOS>BOND
     1    18    19    1
     2    19    17    1
     3    17    11    1
     4    11    12    1
     5    12    13    1
     6    13    14    1
     7    14     1    1
     8     1     2   ar
     9     2     3   ar
    10     3     4   ar
    11     4     5   ar
    12     5     6   ar
    13     6    21    1
    14    21    22   ar
    15    22    23   ar
    16    23    24   ar
    17    24    25   ar
    18    25    26   ar
    19     6     7   ar
    20     7    27    1
    21    27    28   ar
    22    28    29   ar
    23    29    30   ar
    24    30    33    1
    25    33    34    1
    26    34    35    1
    27    35    36    1
    28    36    37    1
    29    37    40    1
    30    40    41   ar
    31    41    42   ar
    32    42    43   ar
    33    43    46    1
    34    46    47   ar
    35    47    48   ar
    36    48    49   ar
    37    49    50   ar
    38    50    51   ar
    39    43    44   ar
    40    37    38    1
    41    38    39    1
    42    30    31   ar
    43    31    32   ar
    44     7     8   ar
    45     8     9   ar
    46     9    10   ar
    47    14    15    1
    48    15    16    1
    49    16    11    1
    50    10     1   ar
    51     9     4   ar
    52    26    21   ar
    53    32    27   ar
    54    39    34    1
    55    44    40   ar
    56    51    46   ar
    57    18    20    1
    58    44    45    1
@<TRIPOS>MOLECULE
*****
 51 58 0 0 0
SMALL
GASTEIGER

@<TRIPOS>ATOM
      1 C         141.4370  143.0407  164.5983 C.ar    1  UNL1        0.1335
      2 C         140.9461  144.4156  164.2542 C.ar    1  UNL1        0.0360
      3 C         140.7883  144.8180  162.8179 C.ar    1  UNL1        0.0251
      4 C         141.1215  143.8454  161.7256 C.ar    1  UNL1        0.1171
      5 N         140.9637  144.2478  160.2892 N.ar    1  UNL1       -0.2407
      6 C         141.2969  143.2752  159.1969 C.ar    1  UNL1        0.0989
      7 C         141.7879  141.9002  159.5411 C.ar    1  UNL1        0.1005
      8 N         141.9456  141.4978  160.9774 N.ar    1  UNL1       -0.2237
      9 C         141.6124  142.4704  162.0697 C.ar    1  UNL1        0.1814
     10 N         141.7702  142.0681  163.5061 N.ar    1  UNL1       -0.2104
     11 N         141.9103  141.8334  168.9075 N.3     1  UNL1       -0.2677
     12 C         143.0680  141.7079  167.9620 C.3     1  UNL1        0.0939
     13 C         142.9102  142.1103  166.5256 C.3     1  UNL1        0.1095
     14 N         141.5948  142.6382  166.0348 N.pl3   1  UNL1       -0.2903
     15 C         140.4372  142.7638  166.9803 C.3     1  UNL1        0.1095
     16 C         140.5949  142.3614  168.4167 C.3     1  UNL1        0.0939
     17 C         142.0681  141.4310  170.3439 C.3     1  UNL1        0.1043
     18 O         140.4230  142.2584  172.1768 O.3     1  UNL1       -0.3805
     19 C         140.8552  141.2074  171.1976 C.3     1  UNL1        0.1544
     20 H         139.6281  141.9575  172.6442 H       1  UNL1        0.2105
     21 C         141.1391  143.6775  157.7606 C.ar    1  UNL1        0.0191
     22 C         139.8189  143.4970  157.0717 C.ar    1  UNL1        0.0015
     23 C         139.6611  143.8993  155.6354 C.ar    1  UNL1        0.0000
     24 C         140.8235  144.4823  154.8878 C.ar    1  UNL1        0.0000
     25 C         142.1437  144.6628  155.5765 C.ar    1  UNL1        0.0000
     26 C         142.3016  144.2605  157.0129 C.ar    1  UNL1        0.0015
     27 C         142.1210  140.9276  158.4488 C.ar    1  UNL1        0.0192
     28 C         141.0390  140.0892  157.8353 C.ar    1  UNL1        0.0013
     29 C         141.3721  139.1166  156.7430 C.ar    1  UNL1       -0.0029
     30 C         142.7874  138.9824  156.2643 C.ar    1  UNL1       -0.0061
     31 C         143.8694  139.8207  156.8778 C.ar    1  UNL1       -0.0029
     32 C         143.5362  140.7933  157.9700 C.ar    1  UNL1        0.0013
     33 C         143.1206  138.0098  155.1720 C.3     1  UNL1        0.0991
     34 N         143.0367  136.5345  155.4301 N.3     1  UNL1       -0.2689
     35 C         142.6016  135.6053  154.3360 C.3     1  UNL1        0.0728
     36 C         142.5176  134.1300  154.5941 C.3     1  UNL1        0.0249
     37 C         142.8688  133.5840  155.9463 C.3     1  UNL1        0.0613
     38 C         143.3039  134.5133  157.0405 C.3     1  UNL1        0.0249
     39 C         143.3878  135.9885  156.7823 C.3     1  UNL1        0.0728
     40 C         142.7849  132.1088  156.2044 C.ar    1  UNL1        0.1396
     41 N         142.2790  131.0731  155.2445 N.ar    1  UNL1       -0.1335
     42 N         142.3736  129.7344  155.9146 N.ar    1  UNL1       -0.1277
     43 C         142.9380  129.9428  157.2887 C.ar    1  UNL1        0.1807
     44 N         143.1922  131.4102  157.4678 N.ar    1  UNL1       -0.3234
     45 H         143.5616  131.8395  158.2731 H       1  UNL1        0.1686
     46 C         143.2019  128.8718  158.3052 C.ar    1  UNL1        0.1169
     47 C         142.4225  127.5908  158.2646 C.ar    1  UNL1        0.0223
     48 C         142.6864  126.5198  159.2812 C.ar    1  UNL1        0.0032
     49 C         143.7297  126.7297  160.3383 C.ar    1  UNL1        0.0207
     50 C         144.5091  128.0108  160.3788 C.ar    1  UNL1        0.0989
     51 N         144.2452  129.0817  159.3624 N.ar    1  UNL1       -0.2407
@<TRIPOS>BOND
     1    18    19    1
     2    19    17    1
     3    17    11    1
     4    11    12    1
     5    12    13    1
     6    13    14    1
     7    14     1    1
     8     1     2   ar
     9     2     3   ar
    10     3     4   ar
    11     4     5   ar
    12     5     6   ar
    13     6    21    1
    14    21    22   ar
    15    22    23   ar
    16    23    24   ar
    17    24    25   ar
    18    25    26   ar
    19     6     7   ar
    20     7    27    1
    21    27    28   ar
    22    28    29   ar
    23    29    30   ar
    24    30    33    1
    25    33    34    1
    26    34    35    1
    27    35    36    1
    28    36    37    1
    29    37    40    1
    30    40    41   ar
    31    41    42   ar
    32    42    43   ar
    33    43    46    1
    34    46    47   ar
    35    47    48   ar
    36    48    49   ar
    37    49    50   ar
    38    50    51   ar
    39    43    44   ar
    40    37    38    1
    41    38    39    1
    42    30    31   ar
    43    31    32   ar
    44     7     8   ar
    45     8     9   ar
    46     9    10   ar
    47    14    15    1
    48    15    16    1
    49    16    11    1
    50    10     1   ar
    51     9     4   ar
    52    26    21   ar
    53    32    27   ar
    54    39    34    1
    55    44    40   ar
    56    51    46   ar
    57    18    20    1
    58    44    45    1
@<TRIPOS>MOLECULE
*****
 51 58 0 0 0
SMALL
GASTEIGER

@<TRIPOS>ATOM
      1 C         139.9783  148.1823  154.1042 C.ar    1  UNL1        0.1335
      2 C         140.8266  147.6684  152.9789 C.ar    1  UNL1        0.0360
      3 C         141.1342  146.2037  152.8800 C.ar    1  UNL1        0.0251
      4 C         140.5935  145.2528  153.9064 C.ar    1  UNL1        0.1171
      5 N         140.9011  143.7880  153.8075 N.ar    1  UNL1       -0.2407
      6 C         140.3604  142.8371  154.8339 C.ar    1  UNL1        0.0989
      7 C         139.5121  143.3510  155.9592 C.ar    1  UNL1        0.1005
      8 N         139.2045  144.8158  156.0581 N.ar    1  UNL1       -0.2237
      9 C         139.7452  145.7667  155.0317 C.ar    1  UNL1        0.1814
     10 N         139.4376  147.2314  155.1306 N.ar    1  UNL1       -0.2104
     11 N         139.0554  152.5767  154.4010 N.3     1  UNL1       -0.2677
     12 C         139.8880  152.0603  153.2652 C.3     1  UNL1        0.0939
     13 C         140.1956  150.5954  153.1663 C.3     1  UNL1        0.1095
     14 N         139.6706  149.6471  154.2031 N.pl3   1  UNL1       -0.2903
     15 C         138.8380  150.1636  155.3389 C.3     1  UNL1        0.1095
     16 C         138.5304  151.6283  155.4379 C.3     1  UNL1        0.0939
     17 C         138.7477  154.0415  154.5000 C.3     1  UNL1        0.1043
     18 O         136.8959  153.7743  152.6973 O.3     1  UNL1       -0.3805
     19 C         137.6734  154.6417  153.6424 C.3     1  UNL1        0.1544
     20 H         136.2457  154.3153  152.2225 H       1  UNL1        0.2105
     21 C         140.6680  141.3723  154.7350 C.ar    1  UNL1        0.0191
     22 C         141.8807  140.8128  155.4180 C.ar    1  UNL1        0.0015
     23 C         142.1883  139.3481  155.3191 C.ar    1  UNL1        0.0000
     24 C         141.2833  138.4427  154.5372 C.ar    1  UNL1        0.0000
     25 C         140.0706  139.0022  153.8542 C.ar    1  UNL1        0.0000
     26 C         139.7630  140.4670  153.9531 C.ar    1  UNL1        0.0015
     27 C         138.9714  142.4002  156.9856 C.ar    1  UNL1        0.0192
     28 C         139.7637  142.1035  158.2242 C.ar    1  UNL1        0.0013
     29 C         139.2230  141.1526  159.2506 C.ar    1  UNL1       -0.0029
     30 C         137.8900  140.4984  159.0383 C.ar    1  UNL1       -0.0061
     31 C         137.0977  140.7951  157.7997 C.ar    1  UNL1       -0.0029
     32 C         137.6384  141.7460  156.7733 C.ar    1  UNL1        0.0013
     33 C         137.3493  139.5475  160.0647 C.3     1  UNL1        0.0991
     34 N         137.7723  139.6715  161.4985 N.3     1  UNL1       -0.2689
     35 C         138.5041  138.5443  162.1647 C.3     1  UNL1        0.0728
     36 C         138.9272  138.6682  163.5985 C.3     1  UNL1        0.0249
     37 C         138.6185  139.9194  164.3660 C.3     1  UNL1        0.0613
     38 C         137.8866  141.0467  163.6998 C.3     1  UNL1        0.0249
     39 C         137.4636  140.9227  162.2661 C.3     1  UNL1        0.0728
     40 C         139.0415  140.0434  165.7998 C.ar    1  UNL1        0.1396
     41 N         138.4796  139.2689  166.9550 N.ar    1  UNL1       -0.1335
     42 N         139.1915  139.7105  168.1992 N.ar    1  UNL1       -0.1277
     43 C         140.1934  140.7580  167.8130 C.ar    1  UNL1        0.1807
     44 N         140.1007  140.9637  166.3300 N.ar    1  UNL1       -0.3234
     45 H         140.6402  141.5924  165.7982 H       1  UNL1        0.1686
     46 C         141.1246  141.4740  168.7459 C.ar    1  UNL1        0.1169
     47 C         140.7596  142.8288  169.2762 C.ar    1  UNL1        0.0223
     48 C         141.6908  143.5449  170.2091 C.ar    1  UNL1        0.0032
     49 C         142.9869  142.9061  170.6117 C.ar    1  UNL1        0.0207
     50 C         143.3518  141.5511  170.0813 C.ar    1  UNL1        0.0989
     51 N         142.4207  140.8352  169.1485 N.ar    1  UNL1       -0.2407
@<TRIPOS>BOND
     1    18    19    1
     2    19    17    1
     3    17    11    1
     4    11    12    1
     5    12    13    1
     6    13    14    1
     7    14     1    1
     8     1     2   ar
     9     2     3   ar
    10     3     4   ar
    11     4     5   ar
    12     5     6   ar
    13     6    21    1
    14    21    22   ar
    15    22    23   ar
    16    23    24   ar
    17    24    25   ar
    18    25    26   ar
    19     6     7   ar
    20     7    27    1
    21    27    28   ar
    22    28    29   ar
    23    29    30   ar
    24    30    33    1
    25    33    34    1
    26    34    35    1
    27    35    36    1
    28    36    37    1
    29    37    40    1
    30    40    41   ar
    31    41    42   ar
    32    42    43   ar
    33    43    46    1
    34    46    47   ar
    35    47    48   ar
    36    48    49   ar
    37    49    50   ar
    38    50    51   ar
    39    43    44   ar
    40    37    38    1
    41    38    39    1
    42    30    31   ar
    43    31    32   ar
    44     7     8   ar
    45     8     9   ar
    46     9    10   ar
    47    14    15    1
    48    15    16    1
    49    16    11    1
    50    10     1   ar
    51     9     4   ar
    52    26    21   ar
    53    32    27   ar
    54    39    34    1
    55    44    40   ar
    56    51    46   ar
    57    18    20    1
    58    44    45    1
@<TRIPOS>MOLECULE
*****
 51 58 0 0 0
SMALL
GASTEIGER

@<TRIPOS>ATOM
      1 C         147.3645  142.6097  153.7972 C.ar    1  UNL1        0.1335
      2 C         147.1559  143.9552  153.1678 C.ar    1  UNL1        0.0360
      3 C         145.8512  144.6731  153.3478 C.ar    1  UNL1        0.0251
      4 C         144.7552  144.0456  154.1571 C.ar    1  UNL1        0.1171
      5 N         143.4505  144.7635  154.3370 N.ar    1  UNL1       -0.2407
      6 C         142.3545  144.1360  155.1463 C.ar    1  UNL1        0.0989
      7 C         142.5632  142.7904  155.7757 C.ar    1  UNL1        0.1005
      8 N         143.8679  142.0725  155.5957 N.ar    1  UNL1       -0.2237
      9 C         144.9639  142.7001  154.7864 C.ar    1  UNL1        0.1814
     10 N         146.2685  141.9822  154.6065 N.ar    1  UNL1       -0.2104
     11 N         151.2786  140.4558  153.2573 N.3     1  UNL1       -0.2677
     12 C         150.8956  140.9888  154.6061 C.3     1  UNL1        0.0939
     13 C         149.5909  141.7068  154.7861 C.3     1  UNL1        0.1095
     14 N         148.6692  141.8917  153.6172 N.pl3   1  UNL1       -0.2903
     15 C         149.0522  141.3588  152.2684 C.3     1  UNL1        0.1095
     16 C         150.3568  140.6408  152.0884 C.3     1  UNL1        0.0939
     17 C         152.5832  139.7378  153.0773 C.3     1  UNL1        0.1043
     18 O         154.2421  141.3332  154.2827 O.3     1  UNL1       -0.3805
     19 C         153.8705  140.5078  153.0866 C.3     1  UNL1        0.1544
     20 H         155.0977  141.7626  154.1260 H       1  UNL1        0.2105
     21 C         141.0499  144.8539  155.3262 C.ar    1  UNL1        0.0191
     22 C         139.8759  144.5046  154.4602 C.ar    1  UNL1        0.0015
     23 C         138.5712  145.2225  154.6402 C.ar    1  UNL1        0.0000
     24 C         138.4405  146.2897  155.6861 C.ar    1  UNL1        0.0000
     25 C         139.6143  146.6390  156.5521 C.ar    1  UNL1        0.0000
     26 C         140.9191  145.9211  156.3722 C.ar    1  UNL1        0.0015
     27 C         141.4672  142.1629  156.5849 C.ar    1  UNL1        0.0192
     28 C         141.3787  142.4259  158.0591 C.ar    1  UNL1        0.0013
     29 C         140.2827  141.7984  158.8684 C.ar    1  UNL1       -0.0029
     30 C         139.2752  140.9078  158.2035 C.ar    1  UNL1       -0.0061
     31 C         139.3638  140.6448  156.7295 C.ar    1  UNL1       -0.0029
     32 C         140.4598  141.2723  155.9202 C.ar    1  UNL1        0.0013
     33 C         138.1792  140.2802  159.0128 C.3     1  UNL1        0.0991
     34 N         138.3233  140.1546  160.5007 N.3     1  UNL1       -0.2689
     35 C         137.7318  141.1974  161.4021 C.3     1  UNL1        0.0728
     36 C         137.8759  141.0718  162.8900 C.3     1  UNL1        0.0249
     37 C         138.6115  139.9034  163.4762 C.3     1  UNL1        0.0613
     38 C         139.2030  138.8606  162.5747 C.3     1  UNL1        0.0249
     39 C         139.0589  138.9862  161.0869 C.3     1  UNL1        0.0728
     40 C         138.7556  139.7778  164.9640 C.ar    1  UNL1        0.1396
     41 N         138.1142  138.7316  165.8267 N.ar    1  UNL1       -0.1335
     42 N         138.5286  138.9835  167.2461 N.ar    1  UNL1       -0.1277
     43 C         139.4261  140.1854  167.2607 C.ar    1  UNL1        0.1807
     44 N         139.5663  140.6762  165.8502 N.ar    1  UNL1       -0.3234
     45 H         140.0973  141.4519  165.5575 H       1  UNL1        0.1686
     46 C         140.0702  140.7902  168.4728 C.ar    1  UNL1        0.1169
     47 C         140.5396  142.2144  168.4409 C.ar    1  UNL1        0.0223
     48 C         141.1837  142.8192  169.6531 C.ar    1  UNL1        0.0032
     49 C         141.3584  141.9998  170.8972 C.ar    1  UNL1        0.0207
     50 C         140.8889  140.5754  170.9291 C.ar    1  UNL1        0.0989
     51 N         140.2449  139.9707  169.7170 N.ar    1  UNL1       -0.2407
@<TRIPOS>BOND
     1    18    19    1
     2    19    17    1
     3    17    11    1
     4    11    12    1
     5    12    13    1
     6    13    14    1
     7    14     1    1
     8     1     2   ar
     9     2     3   ar
    10     3     4   ar
    11     4     5   ar
    12     5     6   ar
    13     6    21    1
    14    21    22   ar
    15    22    23   ar
    16    23    24   ar
    17    24    25   ar
    18    25    26   ar
    19     6     7   ar
    20     7    27    1
    21    27    28   ar
    22    28    29   ar
    23    29    30   ar
    24    30    33    1
    25    33    34    1
    26    34    35    1
    27    35    36    1
    28    36    37    1
    29    37    40    1
    30    40    41   ar
    31    41    42   ar
    32    42    43   ar
    33    43    46    1
    34    46    47   ar
    35    47    48   ar
    36    48    49   ar
    37    49    50   ar
    38    50    51   ar
    39    43    44   ar
    40    37    38    1
    41    38    39    1
    42    30    31   ar
    43    31    32   ar
    44     7     8   ar
    45     8     9   ar
    46     9    10   ar
    47    14    15    1
    48    15    16    1
    49    16    11    1
    50    10     1   ar
    51     9     4   ar
    52    26    21   ar
    53    32    27   ar
    54    39    34    1
    55    44    40   ar
    56    51    46   ar
    57    18    20    1
    58    44    45    1
@<TRIPOS>MOLECULE
*****
 51 58 0 0 0
SMALL
GASTEIGER

@<TRIPOS>ATOM
      1 C         143.0040  141.2303  164.3564 C.ar    1  UNL1        0.1335
      2 C         144.4819  141.2156  164.1005 C.ar    1  UNL1        0.0360
      3 C         144.9994  141.2199  162.6927 C.ar    1  UNL1        0.0251
      4 C         144.0389  141.2390  161.5406 C.ar    1  UNL1        0.1171
      5 N         144.5565  141.2433  160.1327 N.ar    1  UNL1       -0.2407
      6 C         143.5961  141.2623  158.9807 C.ar    1  UNL1        0.0989
      7 C         142.1181  141.2770  159.2365 C.ar    1  UNL1        0.1005
      8 N         141.6006  141.2726  160.6444 N.ar    1  UNL1       -0.2237
      9 C         142.5610  141.2536  161.7965 C.ar    1  UNL1        0.1814
     10 N         142.0435  141.2493  163.2043 N.ar    1  UNL1       -0.2104
     11 N         141.4514  141.2172  168.5801 N.3     1  UNL1       -0.2677
     12 C         140.8237  140.3285  167.5476 C.3     1  UNL1        0.0939
     13 C         141.3412  140.3328  166.1396 C.3     1  UNL1        0.1095
     14 N         142.4864  141.2259  165.7643 N.pl3   1  UNL1       -0.2903
     15 C         143.1141  142.1147  166.7968 C.3     1  UNL1        0.1095
     16 C         142.5966  142.1103  168.2047 C.3     1  UNL1        0.0939
     17 C         140.9339  141.2129  169.9880 C.3     1  UNL1        0.1043
     18 O         142.2249  140.6350  172.1673 O.3     1  UNL1       -0.3805
     19 C         141.8287  141.6302  171.1172 C.3     1  UNL1        0.1544
     20 H         142.8008  141.0646  172.8190 H       1  UNL1        0.2105
     21 C         144.1136  141.2667  157.5728 C.ar    1  UNL1        0.0191
     22 C         144.3636  139.9698  156.8616 C.ar    1  UNL1        0.0015
     23 C         144.8811  139.9742  155.4537 C.ar    1  UNL1        0.0000
     24 C         145.1486  141.2753  154.7570 C.ar    1  UNL1        0.0000
     25 C         144.8985  142.5721  155.4681 C.ar    1  UNL1        0.0000
     26 C         144.3810  142.5678  156.8760 C.ar    1  UNL1        0.0015
     27 C         141.1576  141.2960  158.0845 C.ar    1  UNL1        0.0192
     28 C         140.7444  140.0104  157.4313 C.ar    1  UNL1        0.0013
     29 C         139.7840  140.0295  156.2792 C.ar    1  UNL1       -0.0029
     30 C         139.2368  141.3340  155.7804 C.ar    1  UNL1       -0.0061
     31 C         139.6500  142.6195  156.4336 C.ar    1  UNL1       -0.0029
     32 C         140.6105  142.6005  157.5857 C.ar    1  UNL1        0.0013
     33 C         138.2763  141.3531  154.6284 C.3     1  UNL1        0.0991
     34 N         136.8030  141.2218  154.8779 N.3     1  UNL1       -0.2689
     35 C         136.3072  140.7602  156.2162 C.3     1  UNL1        0.0728
     36 C         134.8339  140.6290  156.4658 C.3     1  UNL1        0.0249
     37 C         133.8565  140.9595  155.3770 C.3     1  UNL1        0.0613
     38 C         134.3523  141.4212  154.0387 C.3     1  UNL1        0.0249
     39 C         135.8256  141.5523  153.7892 C.3     1  UNL1        0.0728
     40 C         132.3832  140.8283  155.6266 C.ar    1  UNL1        0.1396
     41 N         131.3089  141.6949  155.0394 N.ar    1  UNL1       -0.1335
     42 N         129.9873  141.2097  155.5570 N.ar    1  UNL1       -0.1277
     43 C         130.2449  140.0431  156.4641 C.ar    1  UNL1        0.1807
     44 N         131.7256  139.8074  156.5071 N.ar    1  UNL1       -0.3234
     45 H         132.1852  139.1059  157.0227 H       1  UNL1        0.1686
     46 C         129.2044  139.2513  157.1992 C.ar    1  UNL1        0.1169
     47 C         129.6080  138.0633  158.0213 C.ar    1  UNL1        0.0223
     48 C         128.5674  137.2715  158.7564 C.ar    1  UNL1        0.0032
     49 C         127.1233  137.6676  158.6693 C.ar    1  UNL1        0.0207
     50 C         126.7197  138.8556  157.8471 C.ar    1  UNL1        0.0989
     51 N         127.7602  139.6474  157.1121 N.ar    1  UNL1       -0.2407
@<TRIPOS>BOND
     1    18    19    1
     2    19    17    1
     3    17    11    1
     4    11    12    1
     5    12    13    1
     6    13    14    1
     7    14     1    1
     8     1     2   ar
     9     2     3   ar
    10     3     4   ar
    11     4     5   ar
    12     5     6   ar
    13     6    21    1
    14    21    22   ar
    15    22    23   ar
    16    23    24   ar
    17    24    25   ar
    18    25    26   ar
    19     6     7   ar
    20     7    27    1
    21    27    28   ar
    22    28    29   ar
    23    29    30   ar
    24    30    33    1
    25    33    34    1
    26    34    35    1
    27    35    36    1
    28    36    37    1
    29    37    40    1
    30    40    41   ar
    31    41    42   ar
    32    42    43   ar
    33    43    46    1
    34    46    47   ar
    35    47    48   ar
    36    48    49   ar
    37    49    50   ar
    38    50    51   ar
    39    43    44   ar
    40    37    38    1
    41    38    39    1
    42    30    31   ar
    43    31    32   ar
    44     7     8   ar
    45     8     9   ar
    46     9    10   ar
    47    14    15    1
    48    15    16    1
    49    16    11    1
    50    10     1   ar
    51     9     4   ar
    52    26    21   ar
    53    32    27   ar
    54    39    34    1
    55    44    40   ar
    56    51    46   ar
    57    18    20    1
    58    44    45    1
@<TRIPOS>MOLECULE
*****
 51 58 0 0 0
SMALL
GASTEIGER

@<TRIPOS>ATOM
      1 C         142.9657  138.5633  169.9016 C.ar    1  UNL1        0.1335
      2 C         141.7335  139.1609  170.5135 C.ar    1  UNL1        0.0360
      3 C         140.7932  139.9689  169.6693 C.ar    1  UNL1        0.0251
      4 C         141.0851  140.1794  168.2131 C.ar    1  UNL1        0.1171
      5 N         140.1447  140.9875  167.3688 N.ar    1  UNL1       -0.2407
      6 C         140.4366  141.1980  165.9126 C.ar    1  UNL1        0.0989
      7 C         141.6689  140.6003  165.3007 C.ar    1  UNL1        0.1005
      8 N         142.6092  139.7923  166.1450 N.ar    1  UNL1       -0.2237
      9 C         142.3173  139.5818  167.6012 C.ar    1  UNL1        0.1814
     10 N         143.2576  138.7738  168.4454 N.ar    1  UNL1       -0.2104
     11 N         145.7868  136.1391  172.4345 N.3     1  UNL1       -0.2677
     12 C         144.9915  135.4735  171.3507 C.3     1  UNL1        0.0939
     13 C         144.0512  136.2816  170.5064 C.3     1  UNL1        0.1095
     14 N         143.9061  137.7552  170.7459 N.pl3   1  UNL1       -0.2903
     15 C         144.7013  138.4208  171.8297 C.3     1  UNL1        0.1095
     16 C         145.6416  137.6128  172.6740 C.3     1  UNL1        0.0939
     17 C         146.7271  135.3311  173.2787 C.3     1  UNL1        0.1043
     18 O         146.2918  132.7749  173.4427 O.3     1  UNL1       -0.3805
     19 C         146.2175  134.1467  174.0452 C.3     1  UNL1        0.1544
     20 H         145.9229  132.1283  174.0645 H       1  UNL1        0.2105
     21 C         139.4963  142.0060  165.0683 C.ar    1  UNL1        0.0191
     22 C         139.5019  143.5031  165.1625 C.ar    1  UNL1        0.0015
     23 C         138.5616  144.3112  164.3182 C.ar    1  UNL1        0.0000
     24 C         137.6157  143.6222  163.3797 C.ar    1  UNL1        0.0000
     25 C         137.6101  142.1252  163.2856 C.ar    1  UNL1        0.0000
     26 C         138.5505  141.3171  164.1299 C.ar    1  UNL1        0.0015
     27 C         141.9609  140.8108  163.8445 C.ar    1  UNL1        0.0192
     28 C         141.5545  139.7731  162.8405 C.ar    1  UNL1        0.0013
     29 C         141.8464  139.9835  161.3843 C.ar    1  UNL1       -0.0029
     30 C         142.5447  141.2317  160.9321 C.ar    1  UNL1       -0.0061
     31 C         142.9511  142.2694  161.9361 C.ar    1  UNL1       -0.0029
     32 C         142.6591  142.0589  163.3923 C.ar    1  UNL1        0.0013
     33 C         142.8366  141.4422  159.4759 C.3     1  UNL1        0.0991
     34 N         142.0771  142.4778  158.7008 N.3     1  UNL1       -0.2689
     35 C         140.5913  142.5989  158.8671 C.3     1  UNL1        0.0728
     36 C         139.8318  143.6345  158.0920 C.3     1  UNL1        0.0249
     37 C         140.5581  144.5488  157.1505 C.3     1  UNL1        0.0613
     38 C         142.0440  144.4276  156.9842 C.3     1  UNL1        0.0249
     39 C         142.8034  143.3921  157.7593 C.3     1  UNL1        0.0728
     40 C         139.7986  145.5843  156.3753 C.ar    1  UNL1        0.1396
     41 N         138.5129  145.3642  155.6348 N.ar    1  UNL1       -0.1335
     42 N         138.1112  146.6656  155.0064 N.ar    1  UNL1       -0.1277
     43 C         139.1487  147.6901  155.3586 C.ar    1  UNL1        0.1807
     44 N         140.1916  147.0219  156.2047 N.ar    1  UNL1       -0.3234
     45 H         140.9932  147.4513  156.5818 H       1  UNL1        0.1686
     46 C         139.1441  149.1301  154.9386 C.ar    1  UNL1        0.1169
     47 C         139.6895  149.5219  153.5973 C.ar    1  UNL1        0.0223
     48 C         139.6849  150.9618  153.1772 C.ar    1  UNL1        0.0032
     49 C         139.1349  152.0101  154.0984 C.ar    1  UNL1        0.0207
     50 C         138.5894  151.6183  155.4398 C.ar    1  UNL1        0.0989
     51 N         138.5941  150.1784  155.8597 N.ar    1  UNL1       -0.2407
@<TRIPOS>BOND
     1    18    19    1
     2    19    17    1
     3    17    11    1
     4    11    12    1
     5    12    13    1
     6    13    14    1
     7    14     1    1
     8     1     2   ar
     9     2     3   ar
    10     3     4   ar
    11     4     5   ar
    12     5     6   ar
    13     6    21    1
    14    21    22   ar
    15    22    23   ar
    16    23    24   ar
    17    24    25   ar
    18    25    26   ar
    19     6     7   ar
    20     7    27    1
    21    27    28   ar
    22    28    29   ar
    23    29    30   ar
    24    30    33    1
    25    33    34    1
    26    34    35    1
    27    35    36    1
    28    36    37    1
    29    37    40    1
    30    40    41   ar
    31    41    42   ar
    32    42    43   ar
    33    43    46    1
    34    46    47   ar
    35    47    48   ar
    36    48    49   ar
    37    49    50   ar
    38    50    51   ar
    39    43    44   ar
    40    37    38    1
    41    38    39    1
    42    30    31   ar
    43    31    32   ar
    44     7     8   ar
    45     8     9   ar
    46     9    10   ar
    47    14    15    1
    48    15    16    1
    49    16    11    1
    50    10     1   ar
    51     9     4   ar
    52    26    21   ar
    53    32    27   ar
    54    39    34    1
    55    44    40   ar
    56    51    46   ar
    57    18    20    1
    58    44    45    1
@<TRIPOS>MOLECULE
*****
 51 58 0 0 0
SMALL
GASTEIGER

@<TRIPOS>ATOM
      1 C         150.0222  142.5543  153.7142 C.ar    1  UNL1        0.1335
      2 C         149.4340  143.6083  152.8238 C.ar    1  UNL1        0.0360
      3 C         147.9634  143.8991  152.8762 C.ar    1  UNL1        0.0251
      4 C         147.0810  143.1358  153.8190 C.ar    1  UNL1        0.1171
      5 N         145.6104  143.4265  153.8713 N.ar    1  UNL1       -0.2407
      6 C         144.7280  142.6632  154.8141 C.ar    1  UNL1        0.0989
      7 C         145.3164  141.6091  155.7045 C.ar    1  UNL1        0.1005
      8 N         146.7870  141.3184  155.6522 N.ar    1  UNL1       -0.2237
      9 C         147.6693  142.0817  154.7094 C.ar    1  UNL1        0.1814
     10 N         149.1399  141.7910  154.6570 N.ar    1  UNL1       -0.2104
     11 N         154.4342  141.6821  153.5572 N.3     1  UNL1       -0.2677
     12 C         153.4444  140.6043  153.2273 C.3     1  UNL1        0.0939
     13 C         151.9737  140.8951  153.2796 C.3     1  UNL1        0.1095
     14 N         151.4929  142.2635  153.6619 N.pl3   1  UNL1       -0.2903
     15 C         152.4827  143.3413  153.9918 C.3     1  UNL1        0.1095
     16 C         153.9533  143.0506  153.9395 C.3     1  UNL1        0.0939
     17 C         155.9048  141.3913  153.5049 C.3     1  UNL1        0.1043
     18 O         155.9631  139.9701  155.6790 O.3     1  UNL1       -0.3805
     19 C         156.4723  140.2504  154.2961 C.3     1  UNL1        0.1544
     20 H         156.4321  139.2051  156.0473 H       1  UNL1        0.2105
     21 C         143.2575  142.9539  154.8665 C.ar    1  UNL1        0.0191
     22 C         142.7470  144.0914  155.7006 C.ar    1  UNL1        0.0015
     23 C         141.2764  144.3821  155.7530 C.ar    1  UNL1        0.0000
     24 C         140.3162  143.5354  154.9712 C.ar    1  UNL1        0.0000
     25 C         140.8266  142.3980  154.1371 C.ar    1  UNL1        0.0000
     26 C         142.2972  142.1073  154.0847 C.ar    1  UNL1        0.0015
     27 C         144.4341  140.8458  156.6473 C.ar    1  UNL1        0.0192
     28 C         143.8674  139.5192  156.2362 C.ar    1  UNL1        0.0013
     29 C         142.9851  138.7559  157.1790 C.ar    1  UNL1       -0.0029
     30 C         142.6694  139.3192  158.5329 C.ar    1  UNL1       -0.0061
     31 C         143.2361  140.6458  158.9440 C.ar    1  UNL1       -0.0029
     32 C         144.1184  141.4091  158.0012 C.ar    1  UNL1        0.0013
     33 C         141.7871  138.5559  159.4757 C.3     1  UNL1        0.0991
     34 N         142.0106  138.6519  160.9559 N.3     1  UNL1       -0.2689
     35 C         143.4069  138.6935  161.5024 C.3     1  UNL1        0.0728
     36 C         143.6304  138.7895  162.9826 C.3     1  UNL1        0.0249
     37 C         142.4577  138.8439  163.9162 C.3     1  UNL1        0.0613
     38 C         141.0614  138.8022  163.3697 C.3     1  UNL1        0.0249
     39 C         140.8379  138.7062  161.8895 C.3     1  UNL1        0.0728
     40 C         142.6812  138.9398  165.3963 C.ar    1  UNL1        0.1396
     41 N         143.4209  137.9465  166.2426 N.ar    1  UNL1       -0.1335
     42 N         143.4011  138.4388  167.6594 N.ar    1  UNL1       -0.1277
     43 C         142.6490  139.7364  167.6887 C.ar    1  UNL1        0.1807
     44 N         142.2041  140.0460  166.2901 N.ar    1  UNL1       -0.3234
     45 H         141.6894  140.8364  166.0082 H       1  UNL1        0.1686
     46 C         142.3878  140.5767  168.9035 C.ar    1  UNL1        0.1169
     47 C         143.0933  141.8895  169.0731 C.ar    1  UNL1        0.0223
     48 C         142.8321  142.7298  170.2879 C.ar    1  UNL1        0.0032
     49 C         141.8653  142.2574  171.3330 C.ar    1  UNL1        0.0207
     50 C         141.1598  140.9445  171.1632 C.ar    1  UNL1        0.0989
     51 N         141.4210  140.1043  169.9485 N.ar    1  UNL1       -0.2407
@<TRIPOS>BOND
     1    18    19    1
     2    19    17    1
     3    17    11    1
     4    11    12    1
     5    12    13    1
     6    13    14    1
     7    14     1    1
     8     1     2   ar
     9     2     3   ar
    10     3     4   ar
    11     4     5   ar
    12     5     6   ar
    13     6    21    1
    14    21    22   ar
    15    22    23   ar
    16    23    24   ar
    17    24    25   ar
    18    25    26   ar
    19     6     7   ar
    20     7    27    1
    21    27    28   ar
    22    28    29   ar
    23    29    30   ar
    24    30    33    1
    25    33    34    1
    26    34    35    1
    27    35    36    1
    28    36    37    1
    29    37    40    1
    30    40    41   ar
    31    41    42   ar
    32    42    43   ar
    33    43    46    1
    34    46    47   ar
    35    47    48   ar
    36    48    49   ar
    37    49    50   ar
    38    50    51   ar
    39    43    44   ar
    40    37    38    1
    41    38    39    1
    42    30    31   ar
    43    31    32   ar
    44     7     8   ar
    45     8     9   ar
    46     9    10   ar
    47    14    15    1
    48    15    16    1
    49    16    11    1
    50    10     1   ar
    51     9     4   ar
    52    26    21   ar
    53    32    27   ar
    54    39    34    1
    55    44    40   ar
    56    51    46   ar
    57    18    20    1
    58    44    45    1
