@<TRIPOS>MOLECULE
*****
 27 30 0 0 0
SMALL
GASTEIGER

@<TRIPOS>ATOM
      1 C         138.4939  138.9767  163.0282 C.ar    1  UNL1        0.0729
      2 C         138.7871  137.7159  163.7862 C.ar    1  UNL1        0.0109
      3 C         138.8158  137.7320  165.2859 C.ar    1  UNL1        0.0583
      4 C         138.5513  139.0086  166.0275 C.ar    1  UNL1        0.2297
      5 N         138.2582  140.2694  165.2695 N.ar    1  UNL1       -0.2097
      6 C         138.2295  140.2535  163.7699 C.ar    1  UNL1        0.1065
      7 O         137.1957  139.2868  160.7992 O.2     1  UNL1       -0.2699
      8 C         138.4652  138.9607  161.5286 C.2     1  UNL1        0.2506
      9 N         139.7061  138.6188  160.7583 N.am    1  UNL1       -0.2746
     10 C         140.9198  138.3091  161.5836 C.3     1  UNL1        0.0952
     11 C         142.2964  137.9359  161.1189 C.3     1  UNL1        0.0388
     12 C         142.7991  137.7802  159.7144 C.3     1  UNL1        0.0739
     13 N         142.0496  137.9592  158.4275 N.3     1  UNL1       -0.2725
     14 C         140.6122  138.3382  158.2273 C.3     1  UNL1        0.0938
     15 C         139.5692  138.6317  159.2647 C.3     1  UNL1        0.1110
     16 C         142.8424  137.7288  157.1751 C.3     1  UNL1        0.0576
     17 C         143.4967  138.6139  156.1560 C.3     1  UNL1        0.0160
     18 C         143.9636  137.4029  155.4040 C.3     1  UNL1        0.0028
     19 C         143.3093  136.5178  156.4230 C.3     1  UNL1        0.0160
     20 O         138.5801  139.0246  167.5272 O.3     1  UNL1       -0.4361
     21 C         139.4650  139.9963  168.2501 C.ar    1  UNL1        0.1480
     22 C         139.0727  140.5019  169.6067 C.ar    1  UNL1        0.0376
     23 C         139.9577  141.4737  170.3296 C.ar    1  UNL1        0.0040
     24 C         141.2348  141.9398  169.6959 C.ar    1  UNL1        0.0116
     25 C         141.6270  141.4341  168.3393 C.ar    1  UNL1        0.0607
     26 CL        142.9042  141.9003  167.7055 Cl      1  UNL1       -0.0821
     27 C         140.7421  140.4624  167.6164 C.ar    1  UNL1        0.0489
@<TRIPOS>BOND
     1     7     8    2
     2     8     1    1
     3     1     2   ar
     4     2     3   ar
     5     3     4   ar
     6     4    20    1
     7    20    21    1
     8    21    22   ar
     9    22    23   ar
    10    23    24   ar
    11    24    25   ar
    12    25    26    1
    13    25    27   ar
    14     4     5   ar
    15     5     6   ar
    16     8     9   am
    17     9    10    1
    18    10    11    1
    19    11    12    1
    20    12    13    1
    21    13    16    1
    22    16    17    1
    23    17    18    1
    24    18    19    1
    25    13    14    1
    26    14    15    1
    27     6     1   ar
    28    15     9    1
    29    27    21   ar
    30    19    16    1
@<TRIPOS>MOLECULE
*****
 27 30 0 0 0
SMALL
GASTEIGER

@<TRIPOS>ATOM
      1 C         142.0296  138.1836  162.5227 C.ar    1  UNL1        0.0729
      2 C         143.4188  138.0442  161.9742 C.ar    1  UNL1        0.0109
      3 C         143.6526  138.1257  160.4947 C.ar    1  UNL1        0.0583
      4 C         142.4974  138.3465  159.5639 C.ar    1  UNL1        0.2297
      5 N         141.1082  138.4858  160.1123 N.ar    1  UNL1       -0.2097
      6 C         140.8743  138.4044  161.5917 C.ar    1  UNL1        0.1065
      7 O         141.2114  136.8576  164.6016 O.2     1  UNL1       -0.2699
      8 C         141.7957  138.1022  164.0021 C.2     1  UNL1        0.2506
      9 N         142.1462  139.2654  164.8820 N.am    1  UNL1       -0.2746
     10 C         142.7239  140.4598  164.1822 C.3     1  UNL1        0.0952
     11 C         143.1708  141.7643  164.7729 C.3     1  UNL1        0.0388
     12 C         143.1502  142.1963  166.2091 C.3     1  UNL1        0.0739
     13 N         142.6778  141.4308  167.4095 N.3     1  UNL1       -0.2725
     14 C         142.1092  140.0440  167.4700 C.3     1  UNL1        0.0938
     15 C         141.8727  139.0804  166.3451 C.3     1  UNL1        0.1110
     16 C         142.7886  142.1466  168.7229 C.3     1  UNL1        0.0576
     17 C         143.8952  142.3981  169.7039 C.3     1  UNL1        0.0160
     18 C         142.9453  143.1590  170.5805 C.3     1  UNL1        0.0028
     19 C         141.8386  142.9076  169.5997 C.3     1  UNL1        0.0160
     20 O         142.7313  138.4279  158.0844 O.3     1  UNL1       -0.4361
     21 C         142.2644  137.3186  157.1891 C.ar    1  UNL1        0.1480
     22 C         141.0257  137.4937  156.3616 C.ar    1  UNL1        0.0376
     23 C         140.5589  136.3844  155.4663 C.ar    1  UNL1        0.0040
     24 C         141.3308  135.1001  155.3985 C.ar    1  UNL1        0.0116
     25 C         142.5696  134.9251  156.2260 C.ar    1  UNL1        0.0607
     26 CL        143.3416  133.6407  156.1582 Cl      1  UNL1       -0.0821
     27 C         143.0364  136.0344  157.1213 C.ar    1  UNL1        0.0489
@<TRIPOS>BOND
     1     7     8    2
     2     8     1    1
     3     1     2   ar
     4     2     3   ar
     5     3     4   ar
     6     4    20    1
     7    20    21    1
     8    21    22   ar
     9    22    23   ar
    10    23    24   ar
    11    24    25   ar
    12    25    26    1
    13    25    27   ar
    14     4     5   ar
    15     5     6   ar
    16     8     9   am
    17     9    10    1
    18    10    11    1
    19    11    12    1
    20    12    13    1
    21    13    16    1
    22    16    17    1
    23    17    18    1
    24    18    19    1
    25    13    14    1
    26    14    15    1
    27     6     1   ar
    28    15     9    1
    29    27    21   ar
    30    19    16    1
@<TRIPOS>MOLECULE
*****
 27 30 0 0 0
SMALL
GASTEIGER

@<TRIPOS>ATOM
      1 C         140.9914  139.0258  158.7725 C.ar    1  UNL1        0.0729
      2 C         140.0436  138.2361  157.9193 C.ar    1  UNL1        0.0109
      3 C         140.5766  137.2860  156.8881 C.ar    1  UNL1        0.0583
      4 C         142.0573  137.1257  156.7101 C.ar    1  UNL1        0.2297
      5 N         143.0051  137.9154  157.5633 N.ar    1  UNL1       -0.2097
      6 C         142.4723  138.8654  158.5945 C.ar    1  UNL1        0.1065
      7 O         140.0432  141.3607  159.4042 O.2     1  UNL1       -0.2699
      8 C         140.4586  139.9758  159.8037 C.2     1  UNL1        0.2506
      9 N         140.3411  139.5411  161.2345 N.am    1  UNL1       -0.2746
     10 C         140.7834  138.1378  161.5267 C.3     1  UNL1        0.0952
     11 C         140.7907  137.4139  162.8405 C.3     1  UNL1        0.0388
     12 C         140.3575  137.9145  164.1864 C.3     1  UNL1        0.0739
     13 N         139.8100  139.2625  164.5512 N.3     1  UNL1       -0.2725
     14 C         139.5605  140.4430  163.6600 C.3     1  UNL1        0.0938
     15 C         139.7969  140.5669  162.1839 C.3     1  UNL1        0.1110
     16 C         139.4667  139.4557  165.9985 C.3     1  UNL1        0.0576
     17 C         140.1239  140.1355  167.1630 C.3     1  UNL1        0.0160
     18 C         138.9811  139.7288  168.0454 C.3     1  UNL1        0.0028
     19 C         138.3238  139.0490  166.8810 C.3     1  UNL1        0.0160
     20 O         142.5902  136.1756  155.6789 O.3     1  UNL1       -0.4361
     21 C         142.7487  134.7212  156.0098 C.ar    1  UNL1        0.1480
     22 C         141.7671  133.7197  155.4774 C.ar    1  UNL1        0.0376
     23 C         141.9257  132.2652  155.8084 C.ar    1  UNL1        0.0040
     24 C         143.0657  131.8123  156.6716 C.ar    1  UNL1        0.0116
     25 C         144.0473  132.8140  157.2039 C.ar    1  UNL1        0.0607
     26 CL        145.1874  132.3611  158.0671 Cl      1  UNL1       -0.0821
     27 C         143.8888  134.2684  156.8730 C.ar    1  UNL1        0.0489
@<TRIPOS>BOND
     1     7     8    2
     2     8     1    1
     3     1     2   ar
     4     2     3   ar
     5     3     4   ar
     6     4    20    1
     7    20    21    1
     8    21    22   ar
     9    22    23   ar
    10    23    24   ar
    11    24    25   ar
    12    25    26    1
    13    25    27   ar
    14     4     5   ar
    15     5     6   ar
    16     8     9   am
    17     9    10    1
    18    10    11    1
    19    11    12    1
    20    12    13    1
    21    13    16    1
    22    16    17    1
    23    17    18    1
    24    18    19    1
    25    13    14    1
    26    14    15    1
    27     6     1   ar
    28    15     9    1
    29    27    21   ar
    30    19    16    1
@<TRIPOS>MOLECULE
*****
 27 30 0 0 0
SMALL
GASTEIGER

@<TRIPOS>ATOM
      1 C         139.8721  138.5426  164.2919 C.ar    1  UNL1        0.0729
      2 C         140.8337  139.3901  165.0710 C.ar    1  UNL1        0.0109
      3 C         140.5266  139.7595  166.4921 C.ar    1  UNL1        0.0583
      4 C         139.2580  139.2815  167.1339 C.ar    1  UNL1        0.2297
      5 N         138.2964  138.4340  166.3548 N.ar    1  UNL1       -0.2097
      6 C         138.6034  138.0645  164.9338 C.ar    1  UNL1        0.1065
      7 O         140.9762  136.9380  162.5726 O.2     1  UNL1       -0.2699
      8 C         140.1791  138.1731  162.8709 C.2     1  UNL1        0.2506
      9 N         139.6890  139.0388  161.7482 N.am    1  UNL1       -0.2746
     10 C         138.9019  140.2491  162.1556 C.3     1  UNL1        0.0952
     11 C         138.2822  141.2992  161.2819 C.3     1  UNL1        0.0388
     12 C         138.2964  141.3984  159.7854 C.3     1  UNL1        0.0739
     13 N         138.9339  140.4720  158.7926 N.3     1  UNL1       -0.2725
     14 C         139.7146  139.2176  159.0514 C.3     1  UNL1        0.0938
     15 C         140.0506  138.5798  160.3668 C.3     1  UNL1        0.1110
     16 C         138.7689  140.8500  157.3505 C.3     1  UNL1        0.0576
     17 C         137.7431  140.5723  156.2918 C.3     1  UNL1        0.0160
     18 C         138.5355  141.3846  155.3109 C.3     1  UNL1        0.0028
     19 C         139.5613  141.6624  156.3695 C.3     1  UNL1        0.0160
     20 O         138.9509  139.6510  168.5550 O.3     1  UNL1       -0.4361
     21 C         139.9177  140.4894  169.3376 C.ar    1  UNL1        0.1480
     22 C         141.0098  139.8330  170.1290 C.ar    1  UNL1        0.0376
     23 C         141.9765  140.6714  170.9116 C.ar    1  UNL1        0.0040
     24 C         141.8512  142.1661  170.9028 C.ar    1  UNL1        0.0116
     25 C         140.7590  142.8224  170.1112 C.ar    1  UNL1        0.0607
     26 CL        140.6337  144.3172  170.1023 Cl      1  UNL1       -0.0821
     27 C         139.7923  141.9840  169.3286 C.ar    1  UNL1        0.0489
@<TRIPOS>BOND
     1     7     8    2
     2     8     1    1
     3     1     2   ar
     4     2     3   ar
     5     3     4   ar
     6     4    20    1
     7    20    21    1
     8    21    22   ar
     9    22    23   ar
    10    23    24   ar
    11    24    25   ar
    12    25    26    1
    13    25    27   ar
    14     4     5   ar
    15     5     6   ar
    16     8     9   am
    17     9    10    1
    18    10    11    1
    19    11    12    1
    20    12    13    1
    21    13    16    1
    22    16    17    1
    23    17    18    1
    24    18    19    1
    25    13    14    1
    26    14    15    1
    27     6     1   ar
    28    15     9    1
    29    27    21   ar
    30    19    16    1
@<TRIPOS>MOLECULE
*****
 27 30 0 0 0
SMALL
GASTEIGER

@<TRIPOS>ATOM
      1 C         143.5140  142.5721  163.0315 C.ar    1  UNL1        0.0729
      2 C         144.4048  143.5239  163.7737 C.ar    1  UNL1        0.0109
      3 C         144.3592  143.5802  165.2720 C.ar    1  UNL1        0.0583
      4 C         143.4230  142.6848  166.0280 C.ar    1  UNL1        0.2297
      5 N         142.5323  141.7330  165.2859 N.ar    1  UNL1       -0.2097
      6 C         142.5778  141.6767  163.7877 C.ar    1  UNL1        0.1065
      7 O         144.5220  141.5929  160.8464 O.2     1  UNL1       -0.2699
      8 C         143.5595  142.5158  161.5333 C.2     1  UNL1        0.2506
      9 N         142.6426  143.3823  160.7220 N.am    1  UNL1       -0.2746
     10 C         141.7204  144.2677  161.5068 C.3     1  UNL1        0.0952
     11 C         140.6968  145.2384  160.9965 C.3     1  UNL1        0.0388
     12 C         140.3428  145.5633  159.5757 C.3     1  UNL1        0.0739
     13 N         140.9247  144.9980  158.3140 N.3     1  UNL1       -0.2725
     14 C         142.0044  143.9680  158.1616 C.3     1  UNL1        0.0938
     15 C         142.7689  143.2490  159.2334 C.3     1  UNL1        0.1110
     16 C         140.3510  145.5334  157.0357 C.3     1  UNL1        0.0576
     17 C         139.6034  146.7742  156.6463 C.3     1  UNL1        0.0160
     18 C         139.5396  146.2907  155.2278 C.3     1  UNL1        0.0028
     19 C         140.2872  145.0498  155.6171 C.3     1  UNL1        0.0160
     20 O         143.3775  142.7412  167.5264 O.3     1  UNL1       -0.4361
     21 C         142.4564  141.8311  168.2835 C.ar    1  UNL1        0.1480
     22 C         141.0130  142.2006  168.4574 C.ar    1  UNL1        0.0376
     23 C         140.0920  141.2904  169.2146 C.ar    1  UNL1        0.0040
     24 C         140.6142  140.0109  169.7978 C.ar    1  UNL1        0.0116
     25 C         142.0576  139.6416  169.6238 C.ar    1  UNL1        0.0607
     26 CL        142.5798  138.3620  170.2071 Cl      1  UNL1       -0.0821
     27 C         142.9787  140.5516  168.8667 C.ar    1  UNL1        0.0489
@<TRIPOS>BOND
     1     7     8    2
     2     8     1    1
     3     1     2   ar
     4     2     3   ar
     5     3     4   ar
     6     4    20    1
     7    20    21    1
     8    21    22   ar
     9    22    23   ar
    10    23    24   ar
    11    24    25   ar
    12    25    26    1
    13    25    27   ar
    14     4     5   ar
    15     5     6   ar
    16     8     9   am
    17     9    10    1
    18    10    11    1
    19    11    12    1
    20    12    13    1
    21    13    16    1
    22    16    17    1
    23    17    18    1
    24    18    19    1
    25    13    14    1
    26    14    15    1
    27     6     1   ar
    28    15     9    1
    29    27    21   ar
    30    19    16    1
@<TRIPOS>MOLECULE
*****
 27 30 0 0 0
SMALL
GASTEIGER

@<TRIPOS>ATOM
      1 C         138.6981  139.8773  158.9644 C.ar    1  UNL1        0.0729
      2 C         137.7570  139.8993  160.1322 C.ar    1  UNL1        0.0109
      3 C         138.1122  139.1726  161.3955 C.ar    1  UNL1        0.0583
      4 C         139.4085  138.4240  161.4910 C.ar    1  UNL1        0.2297
      5 N         140.3497  138.4020  160.3232 N.ar    1  UNL1       -0.2097
      6 C         139.9945  139.1286  159.0599 C.ar    1  UNL1        0.1065
      7 O         137.5345  139.9153  156.6419 O.2     1  UNL1       -0.2699
      8 C         138.3430  140.6039  157.7012 C.2     1  UNL1        0.2506
      9 N         138.7964  142.0191  157.4972 N.am    1  UNL1       -0.2746
     10 C         139.5984  142.6133  158.6169 C.3     1  UNL1        0.0952
     11 C         140.1899  143.9883  158.7165 C.3     1  UNL1        0.0388
     12 C         140.1255  145.1083  157.7210 C.3     1  UNL1        0.0739
     13 N         139.4537  145.1304  156.3800 N.3     1  UNL1       -0.2725
     14 C         138.6803  144.0376  155.7034 C.3     1  UNL1        0.0938
     15 C         138.3878  142.6530  156.2006 C.3     1  UNL1        0.1110
     16 C         139.5707  146.4149  155.6145 C.3     1  UNL1        0.0576
     17 C         140.3378  146.8634  154.4059 C.3     1  UNL1        0.0160
     18 C         139.7362  148.2317  154.5318 C.3     1  UNL1        0.0028
     19 C         138.9691  147.7833  155.7403 C.3     1  UNL1        0.0160
     20 O         139.7637  137.6974  162.7543 O.3     1  UNL1       -0.4361
     21 C         139.5920  138.3737  164.0821 C.ar    1  UNL1        0.1480
     22 C         140.4815  139.5209  164.4599 C.ar    1  UNL1        0.0376
     23 C         140.3098  140.1972  165.7878 C.ar    1  UNL1        0.0040
     24 C         139.2488  139.7263  166.7377 C.ar    1  UNL1        0.0116
     25 C         138.3594  138.5791  166.3598 C.ar    1  UNL1        0.0607
     26 CL        137.2982  138.1082  167.3098 Cl      1  UNL1       -0.0821
     27 C         138.5310  137.9028  165.0320 C.ar    1  UNL1        0.0489
@<TRIPOS>BOND
     1     7     8    2
     2     8     1    1
     3     1     2   ar
     4     2     3   ar
     5     3     4   ar
     6     4    20    1
     7    20    21    1
     8    21    22   ar
     9    22    23   ar
    10    23    24   ar
    11    24    25   ar
    12    25    26    1
    13    25    27   ar
    14     4     5   ar
    15     5     6   ar
    16     8     9   am
    17     9    10    1
    18    10    11    1
    19    11    12    1
    20    12    13    1
    21    13    16    1
    22    16    17    1
    23    17    18    1
    24    18    19    1
    25    13    14    1
    26    14    15    1
    27     6     1   ar
    28    15     9    1
    29    27    21   ar
    30    19    16    1
@<TRIPOS>MOLECULE
*****
 27 30 0 0 0
SMALL
GASTEIGER

@<TRIPOS>ATOM
      1 C         141.3720  144.2119  160.5315 C.ar    1  UNL1        0.0729
      2 C         141.5170  143.1449  159.4873 C.ar    1  UNL1        0.0109
      3 C         140.8415  143.3006  158.1571 C.ar    1  UNL1        0.0583
      4 C         140.0210  144.5232  157.8710 C.ar    1  UNL1        0.2297
      5 N         139.8760  145.5903  158.9152 N.ar    1  UNL1       -0.2097
      6 C         140.5514  145.4347  160.2454 C.ar    1  UNL1        0.1065
      7 O         143.4498  144.5527  162.0534 O.2     1  UNL1       -0.2699
      8 C         142.0474  144.0563  161.8617 C.2     1  UNL1        0.2506
      9 N         141.3204  143.4043  163.0003 N.am    1  UNL1       -0.2746
     10 C         139.9241  142.9442  162.7026 C.3     1  UNL1        0.0952
     11 C         138.9483  142.2647  163.6171 C.3     1  UNL1        0.0388
     12 C         139.1279  141.8777  165.0550 C.3     1  UNL1        0.0739
     13 N         140.3275  142.0744  165.9338 N.3     1  UNL1       -0.2725
     14 C         141.6439  142.7068  165.5915 C.3     1  UNL1        0.0938
     15 C         142.0857  143.2987  164.2859 C.3     1  UNL1        0.1110
     16 C         140.1930  141.5723  167.3408 C.3     1  UNL1        0.0576
     17 C         140.4872  142.1342  168.7002 C.3     1  UNL1        0.0160
     18 C         140.0027  140.8623  169.3308 C.3     1  UNL1        0.0028
     19 C         139.7085  140.3004  167.9715 C.3     1  UNL1        0.0160
     20 O         139.3456  144.6789  156.5407 O.3     1  UNL1       -0.4361
     21 C         139.5894  145.9071  155.7149 C.ar    1  UNL1        0.1480
     22 C         140.4979  145.8413  154.5231 C.ar    1  UNL1        0.0376
     23 C         140.7416  147.0696  153.6973 C.ar    1  UNL1        0.0040
     24 C         140.0770  148.3635  154.0632 C.ar    1  UNL1        0.0116
     25 C         139.1686  148.4292  155.2550 C.ar    1  UNL1        0.0607
     26 CL        138.5039  149.7232  155.6210 Cl      1  UNL1       -0.0821
     27 C         138.9248  147.2010  156.0809 C.ar    1  UNL1        0.0489
@<TRIPOS>BOND
     1     7     8    2
     2     8     1    1
     3     1     2   ar
     4     2     3   ar
     5     3     4   ar
     6     4    20    1
     7    20    21    1
     8    21    22   ar
     9    22    23   ar
    10    23    24   ar
    11    24    25   ar
    12    25    26    1
    13    25    27   ar
    14     4     5   ar
    15     5     6   ar
    16     8     9   am
    17     9    10    1
    18    10    11    1
    19    11    12    1
    20    12    13    1
    21    13    16    1
    22    16    17    1
    23    17    18    1
    24    18    19    1
    25    13    14    1
    26    14    15    1
    27     6     1   ar
    28    15     9    1
    29    27    21   ar
    30    19    16    1
@<TRIPOS>MOLECULE
*****
 27 30 0 0 0
SMALL
GASTEIGER

@<TRIPOS>ATOM
      1 C         138.8568  141.2721  163.0692 C.ar    1  UNL1        0.0729
      2 C         137.9171  140.4951  163.9428 C.ar    1  UNL1        0.0109
      3 C         138.3573  140.0463  165.3047 C.ar    1  UNL1        0.0583
      4 C         139.7370  140.3746  165.7931 C.ar    1  UNL1        0.2297
      5 N         140.6767  141.1516  164.9195 N.ar    1  UNL1       -0.2097
      6 C         140.2366  141.6004  163.5576 C.ar    1  UNL1        0.1065
      7 O         137.6813  143.0184  161.5464 O.2     1  UNL1       -0.2699
      8 C         138.4167  141.7209  161.7073 C.2     1  UNL1        0.2506
      9 N         138.7120  140.8723  160.5061 N.am    1  UNL1       -0.2746
     10 C         139.4516  139.5957  160.7772 C.3     1  UNL1        0.0952
     11 C         139.8905  138.5440  159.8018 C.3     1  UNL1        0.0388
     12 C         139.6983  138.5091  158.3147 C.3     1  UNL1        0.0739
     13 N         139.0196  139.5173  157.4354 N.3     1  UNL1       -0.2725
     14 C         138.3656  140.8094  157.8263 C.3     1  UNL1        0.0938
     15 C         138.2288  141.4124  159.1929 C.3     1  UNL1        0.1110
     16 C         138.9913  139.1901  155.9719 C.3     1  UNL1        0.0576
     17 C         140.0302  139.0097  154.9050 C.3     1  UNL1        0.0160
     18 C         138.9512  138.7274  153.9020 C.3     1  UNL1        0.0028
     19 C         137.9122  138.9078  154.9688 C.3     1  UNL1        0.0160
     20 O         140.1771  139.9257  167.1551 O.3     1  UNL1       -0.4361
     21 C         140.9460  140.8608  168.0408 C.ar    1  UNL1        0.1480
     22 C         142.3695  140.5532  168.3998 C.ar    1  UNL1        0.0376
     23 C         143.1383  141.4883  169.2855 C.ar    1  UNL1        0.0040
     24 C         142.4837  142.7308  169.8122 C.ar    1  UNL1        0.0116
     25 C         141.0601  143.0383  169.4532 C.ar    1  UNL1        0.0607
     26 CL        140.4054  144.2809  169.9799 Cl      1  UNL1       -0.0821
     27 C         140.2913  142.1033  168.5674 C.ar    1  UNL1        0.0489
@<TRIPOS>BOND
     1     7     8    2
     2     8     1    1
     3     1     2   ar
     4     2     3   ar
     5     3     4   ar
     6     4    20    1
     7    20    21    1
     8    21    22   ar
     9    22    23   ar
    10    23    24   ar
    11    24    25   ar
    12    25    26    1
    13    25    27   ar
    14     4     5   ar
    15     5     6   ar
    16     8     9   am
    17     9    10    1
    18    10    11    1
    19    11    12    1
    20    12    13    1
    21    13    16    1
    22    16    17    1
    23    17    18    1
    24    18    19    1
    25    13    14    1
    26    14    15    1
    27     6     1   ar
    28    15     9    1
    29    27    21   ar
    30    19    16    1
@<TRIPOS>MOLECULE
*****
 27 30 0 0 0
SMALL
GASTEIGER

@<TRIPOS>ATOM
      1 C         141.6868  143.9114  163.0146 C.ar    1  UNL1        0.0729
      2 C         142.9421  144.2630  163.7566 C.ar    1  UNL1        0.0109
      3 C         143.4521  143.3581  164.8388 C.ar    1  UNL1        0.0583
      4 C         142.7068  142.1016  165.1790 C.ar    1  UNL1        0.2297
      5 N         141.4515  141.7500  164.4370 N.ar    1  UNL1       -0.2097
      6 C         140.9414  142.6548  163.3549 C.ar    1  UNL1        0.1065
      7 O         140.2330  145.9320  162.2707 O.2     1  UNL1       -0.2699
      8 C         141.1767  144.8162  161.9325 C.2     1  UNL1        0.2506
      9 N         141.6104  144.6053  160.5121 N.am    1  UNL1       -0.2746
     10 C         142.5549  143.4626  160.2829 C.3     1  UNL1        0.0952
     11 C         143.1645  142.9974  158.9937 C.3     1  UNL1        0.0388
     12 C         142.9802  143.5598  157.6155 C.3     1  UNL1        0.0739
     13 N         142.1409  144.7264  157.1859 N.3     1  UNL1       -0.2725
     14 C         141.2785  145.6187  158.0285 C.3     1  UNL1        0.0938
     15 C         141.0424  145.5647  159.5089 C.3     1  UNL1        0.1110
     16 C         142.1675  145.0425  155.7199 C.3     1  UNL1        0.0576
     17 C         141.2214  145.7000  154.7592 C.3     1  UNL1        0.0160
     18 C         142.2050  145.4895  153.6465 C.3     1  UNL1        0.0028
     19 C         143.1511  144.8320  154.6070 C.3     1  UNL1        0.0160
     20 O         143.2169  141.1967  166.2612 O.3     1  UNL1       -0.4361
     21 C         142.4907  141.1104  167.5709 C.ar    1  UNL1        0.1480
     22 C         142.5096  139.8324  168.3560 C.ar    1  UNL1        0.0376
     23 C         141.7834  139.7462  169.6656 C.ar    1  UNL1        0.0040
     24 C         141.0385  140.9377  170.1902 C.ar    1  UNL1        0.0116
     25 C         141.0197  142.2157  169.4050 C.ar    1  UNL1        0.0607
     26 CL        140.2748  143.4074  169.9295 Cl      1  UNL1       -0.0821
     27 C         141.7459  142.3020  168.0953 C.ar    1  UNL1        0.0489
@<TRIPOS>BOND
     1     7     8    2
     2     8     1    1
     3     1     2   ar
     4     2     3   ar
     5     3     4   ar
     6     4    20    1
     7    20    21    1
     8    21    22   ar
     9    22    23   ar
    10    23    24   ar
    11    24    25   ar
    12    25    26    1
    13    25    27   ar
    14     4     5   ar
    15     5     6   ar
    16     8     9   am
    17     9    10    1
    18    10    11    1
    19    11    12    1
    20    12    13    1
    21    13    16    1
    22    16    17    1
    23    17    18    1
    24    18    19    1
    25    13    14    1
    26    14    15    1
    27     6     1   ar
    28    15     9    1
    29    27    21   ar
    30    19    16    1
