@<TRIPOS>MOLECULE
*****
 18 20 0 0 0
SMALL
GASTEIGER

@<TRIPOS>ATOM
      1 C         139.3165  140.8955  165.5031 C.ar    1  UNL1       -0.0208
      2 C         139.7906  142.3166  165.4290 C.ar    1  UNL1       -0.0042
      3 C         140.3053  143.0008  166.6606 C.ar    1  UNL1       -0.0003
      4 C         140.3460  142.2637  167.9665 C.ar    1  UNL1       -0.0000
      5 C         140.8607  142.9479  169.1981 C.ar    1  UNL1       -0.0000
      6 C         140.9013  142.2108  170.5039 C.ar    1  UNL1       -0.0000
      7 C         140.4272  140.7897  170.5780 C.ar    1  UNL1       -0.0000
      8 C         139.9125  140.1055  169.3464 C.ar    1  UNL1       -0.0000
      9 C         139.8718  140.8426  168.0406 C.ar    1  UNL1       -0.0003
     10 C         139.3571  140.1584  166.8089 C.ar    1  UNL1       -0.0042
     11 C         138.0340  138.0853  161.7713 C.2     1  UNL1       -0.0136
     12 C         138.8852  137.8377  162.9813 C.2     1  UNL1       -0.0289
     13 C         139.2269  138.7839  164.0940 C.3     1  UNL1        0.0315
     14 C         138.8017  140.2113  164.2714 C.3     1  UNL1        0.0424
     15 C         137.9299  141.0452  163.3800 C.3     1  UNL1        0.0735
     16 N         137.2679  140.6576  162.0911 N.3     1  UNL1       -0.2935
     17 C         137.3142  139.3403  161.3751 C.3     1  UNL1        0.0950
     18 H         137.6199  141.3309  161.4105 H       1  UNL1        0.1236
@<TRIPOS>BOND
     1    11    12    2
     2    12    13    1
     3    13    14    1
     4    14     1    1
     5     1     2   ar
     6     2     3   ar
     7     3     4   ar
     8     4     5   ar
     9     5     6   ar
    10     6     7   ar
    11     7     8   ar
    12     8     9   ar
    13     9    10   ar
    14    14    15    1
    15    15    16    1
    16    16    17    1
    17    17    11    1
    18    10     1   ar
    19     9     4   ar
    20    16    18    1
@<TRIPOS>MOLECULE
*****
 18 20 0 0 0
SMALL
GASTEIGER

@<TRIPOS>ATOM
      1 C         138.7599  139.8399  165.4190 C.ar    1  UNL1       -0.0208
      2 C         138.0598  138.9545  166.4069 C.ar    1  UNL1       -0.0042
      3 C         138.2832  139.1482  167.8774 C.ar    1  UNL1       -0.0003
      4 C         139.2066  140.2273  168.3602 C.ar    1  UNL1       -0.0000
      5 C         139.4299  140.4209  169.8307 C.ar    1  UNL1       -0.0000
      6 C         140.3533  141.4999  170.3133 C.ar    1  UNL1       -0.0000
      7 C         141.0534  142.3853  169.3254 C.ar    1  UNL1       -0.0000
      8 C         140.8300  142.1917  167.8549 C.ar    1  UNL1       -0.0000
      9 C         139.9066  141.1127  167.3722 C.ar    1  UNL1       -0.0003
     10 C         139.6833  140.9190  165.9016 C.ar    1  UNL1       -0.0042
     11 C         138.4925  138.6188  160.7386 C.2     1  UNL1       -0.0136
     12 C         139.2225  138.0178  161.9031 C.2     1  UNL1       -0.0289
     13 C         139.2421  138.4751  163.3316 C.3     1  UNL1        0.0315
     14 C         138.5365  139.6463  163.9483 C.3     1  UNL1        0.0424
     15 C         137.6370  140.6494  163.2890 C.3     1  UNL1        0.0735
     16 N         137.2210  140.7292  161.8501 N.3     1  UNL1       -0.2935
     17 C         137.6018  139.8254  160.7151 C.3     1  UNL1        0.0950
     18 H         137.5191  141.6570  161.5490 H       1  UNL1        0.1236
@<TRIPOS>BOND
     1    11    12    2
     2    12    13    1
     3    13    14    1
     4    14     1    1
     5     1     2   ar
     6     2     3   ar
     7     3     4   ar
     8     4     5   ar
     9     5     6   ar
    10     6     7   ar
    11     7     8   ar
    12     8     9   ar
    13     9    10   ar
    14    14    15    1
    15    15    16    1
    16    16    17    1
    17    17    11    1
    18    10     1   ar
    19     9     4   ar
    20    16    18    1
@<TRIPOS>MOLECULE
*****
 18 20 0 0 0
SMALL
GASTEIGER

@<TRIPOS>ATOM
      1 C         141.3977  139.2279  165.6617 C.ar    1  UNL1       -0.0208
      2 C         139.9090  139.3501  165.7989 C.ar    1  UNL1       -0.0042
      3 C         139.3062  139.7309  167.1186 C.ar    1  UNL1       -0.0003
      4 C         140.1922  139.9896  168.3011 C.ar    1  UNL1       -0.0000
      5 C         139.5894  140.3705  169.6208 C.ar    1  UNL1       -0.0000
      6 C         140.4753  140.6292  170.8032 C.ar    1  UNL1       -0.0000
      7 C         141.9640  140.5070  170.6659 C.ar    1  UNL1       -0.0000
      8 C         142.5668  140.1261  169.3463 C.ar    1  UNL1       -0.0000
      9 C         141.6809  139.8674  168.1639 C.ar    1  UNL1       -0.0003
     10 C         142.2836  139.4866  166.8441 C.ar    1  UNL1       -0.0042
     11 C         143.8962  138.4759  161.5800 C.2     1  UNL1       -0.0136
     12 C         144.1426  139.3515  162.7727 C.2     1  UNL1       -0.0289
     13 C         143.2989  139.5166  164.0020 C.3     1  UNL1        0.0315
     14 C         142.0005  138.8470  164.3419 C.3     1  UNL1        0.0424
     15 C         141.2250  137.8469  163.5367 C.3     1  UNL1        0.0735
     16 N         141.5564  137.2693  162.1926 N.3     1  UNL1       -0.2935
     17 C         142.7453  137.5493  161.3218 C.3     1  UNL1        0.0950
     18 H         140.7523  137.5011  161.6095 H       1  UNL1        0.1236
@<TRIPOS>BOND
     1    11    12    2
     2    12    13    1
     3    13    14    1
     4    14     1    1
     5     1     2   ar
     6     2     3   ar
     7     3     4   ar
     8     4     5   ar
     9     5     6   ar
    10     6     7   ar
    11     7     8   ar
    12     8     9   ar
    13     9    10   ar
    14    14    15    1
    15    15    16    1
    16    16    17    1
    17    17    11    1
    18    10     1   ar
    19     9     4   ar
    20    16    18    1
@<TRIPOS>MOLECULE
*****
 18 20 0 0 0
SMALL
GASTEIGER

@<TRIPOS>ATOM
      1 C         140.3093  141.5406  166.8140 C.ar    1  UNL1       -0.0208
      2 C         139.3719  140.4856  166.3058 C.ar    1  UNL1       -0.0042
      3 C         138.4725  140.7790  165.1418 C.ar    1  UNL1       -0.0003
      4 C         138.5104  142.1276  164.4860 C.ar    1  UNL1       -0.0000
      5 C         137.6109  142.4211  163.3221 C.ar    1  UNL1       -0.0000
      6 C         137.6488  143.7696  162.6663 C.ar    1  UNL1       -0.0000
      7 C         138.5862  144.8247  163.1746 C.ar    1  UNL1       -0.0000
      8 C         139.4856  144.5312  164.3386 C.ar    1  UNL1       -0.0000
      9 C         139.4477  143.1827  164.9943 C.ar    1  UNL1       -0.0003
     10 C         140.3471  142.8891  166.1583 C.ar    1  UNL1       -0.0042
     11 C         143.5762  141.2219  170.3768 C.2     1  UNL1       -0.0136
     12 C         143.3684  142.2219  169.2783 C.2     1  UNL1       -0.0289
     13 C         142.3148  142.2332  168.2107 C.3     1  UNL1        0.0315
     14 C         141.2087  141.2471  167.9780 C.3     1  UNL1        0.0424
     15 C         140.8831  140.0062  168.7554 C.3     1  UNL1        0.0735
     16 N         141.5831  139.4450  169.9574 N.3     1  UNL1       -0.2935
     17 C         142.7817  139.9861  170.6791 C.3     1  UNL1        0.0950
     18 H         141.8571  138.5034  169.6771 H       1  UNL1        0.1236
@<TRIPOS>BOND
     1    11    12    2
     2    12    13    1
     3    13    14    1
     4    14     1    1
     5     1     2   ar
     6     2     3   ar
     7     3     4   ar
     8     4     5   ar
     9     5     6   ar
    10     6     7   ar
    11     7     8   ar
    12     8     9   ar
    13     9    10   ar
    14    14    15    1
    15    15    16    1
    16    16    17    1
    17    17    11    1
    18    10     1   ar
    19     9     4   ar
    20    16    18    1
@<TRIPOS>MOLECULE
*****
 18 20 0 0 0
SMALL
GASTEIGER

@<TRIPOS>ATOM
      1 C         140.2103  142.2060  166.2351 C.ar    1  UNL1       -0.0208
      2 C         139.5130  140.9107  166.5281 C.ar    1  UNL1       -0.0042
      3 C         139.9902  140.0395  167.6520 C.ar    1  UNL1       -0.0003
      4 C         141.1648  140.4636  168.4830 C.ar    1  UNL1       -0.0000
      5 C         141.6421  139.5924  169.6069 C.ar    1  UNL1       -0.0000
      6 C         142.8166  140.0165  170.4378 C.ar    1  UNL1       -0.0000
      7 C         143.5140  141.3118  170.1448 C.ar    1  UNL1       -0.0000
      8 C         143.0368  142.1830  169.0209 C.ar    1  UNL1       -0.0000
      9 C         141.8622  141.7589  168.1900 C.ar    1  UNL1       -0.0003
     10 C         141.3849  142.6301  167.0660 C.ar    1  UNL1       -0.0042
     11 C         138.0470  144.5970  162.6196 C.2     1  UNL1       -0.0136
     12 C         137.6212  143.4310  163.4617 C.2     1  UNL1       -0.0289
     13 C         138.3716  142.7546  164.5706 C.3     1  UNL1        0.0315
     14 C         139.7331  143.0772  165.1111 C.3     1  UNL1        0.0424
     15 C         140.6805  144.1558  164.6763 C.3     1  UNL1        0.0735
     16 N         140.5004  145.1782  163.5936 N.3     1  UNL1       -0.2935
     17 C         139.3283  145.3745  162.6782 C.3     1  UNL1        0.0950
     18 H         141.2916  145.0292  162.9673 H       1  UNL1        0.1236
@<TRIPOS>BOND
     1    11    12    2
     2    12    13    1
     3    13    14    1
     4    14     1    1
     5     1     2   ar
     6     2     3   ar
     7     3     4   ar
     8     4     5   ar
     9     5     6   ar
    10     6     7   ar
    11     7     8   ar
    12     8     9   ar
    13     9    10   ar
    14    14    15    1
    15    15    16    1
    16    16    17    1
    17    17    11    1
    18    10     1   ar
    19     9     4   ar
    20    16    18    1
@<TRIPOS>MOLECULE
*****
 18 20 0 0 0
SMALL
GASTEIGER

@<TRIPOS>ATOM
      1 C         140.5030  139.3464  165.7856 C.ar    1  UNL1       -0.0208
      2 C         141.9730  139.0684  165.8939 C.ar    1  UNL1       -0.0042
      3 C         142.6866  139.3008  167.1926 C.ar    1  UNL1       -0.0003
      4 C         141.9302  139.8112  168.3832 C.ar    1  UNL1       -0.0000
      5 C         142.6437  140.0436  169.6819 C.ar    1  UNL1       -0.0000
      6 C         141.8873  140.5540  170.8723 C.ar    1  UNL1       -0.0000
      7 C         140.4173  140.8320  170.7641 C.ar    1  UNL1       -0.0000
      8 C         139.7037  140.5997  169.4653 C.ar    1  UNL1       -0.0000
      9 C         140.4601  140.0893  168.2749 C.ar    1  UNL1       -0.0003
     10 C         139.7465  139.8568  166.9761 C.ar    1  UNL1       -0.0042
     11 C         137.8160  139.2220  161.7566 C.2     1  UNL1       -0.0136
     12 C         137.8622  140.1733  162.9154 C.2     1  UNL1       -0.0289
     13 C         138.7405  140.1253  164.1305 C.3     1  UNL1        0.0315
     14 C         139.7894  139.1140  164.4868 C.3     1  UNL1        0.0424
     15 C         140.2192  137.9010  163.7161 C.3     1  UNL1        0.0735
     16 N         139.7062  137.3997  162.3987 N.3     1  UNL1       -0.2935
     17 C         138.6366  137.9876  161.5267 C.3     1  UNL1        0.0950
     18 H         139.3843  136.4517  162.5939 H       1  UNL1        0.1236
@<TRIPOS>BOND
     1    11    12    2
     2    12    13    1
     3    13    14    1
     4    14     1    1
     5     1     2   ar
     6     2     3   ar
     7     3     4   ar
     8     4     5   ar
     9     5     6   ar
    10     6     7   ar
    11     7     8   ar
    12     8     9   ar
    13     9    10   ar
    14    14    15    1
    15    15    16    1
    16    16    17    1
    17    17    11    1
    18    10     1   ar
    19     9     4   ar
    20    16    18    1
@<TRIPOS>MOLECULE
*****
 18 20 0 0 0
SMALL
GASTEIGER

@<TRIPOS>ATOM
      1 C         140.6496  140.1949  166.0091 C.ar    1  UNL1       -0.0208
      2 C         141.8859  139.4513  166.4198 C.ar    1  UNL1       -0.0042
      3 C         142.6735  139.9065  167.6124 C.ar    1  UNL1       -0.0003
      4 C         142.2249  141.1054  168.3944 C.ar    1  UNL1       -0.0000
      5 C         143.0125  141.5606  169.5870 C.ar    1  UNL1       -0.0000
      6 C         142.5638  142.7594  170.3690 C.ar    1  UNL1       -0.0000
      7 C         141.3275  143.5030  169.9584 C.ar    1  UNL1       -0.0000
      8 C         140.5399  143.0478  168.7658 C.ar    1  UNL1       -0.0000
      9 C         140.9886  141.8490  167.9838 C.ar    1  UNL1       -0.0003
     10 C         140.2009  141.3937  166.7911 C.ar    1  UNL1       -0.0042
     11 C         138.4379  138.0585  162.2658 C.2     1  UNL1       -0.0136
     12 C         139.4295  137.5615  163.2756 C.2     1  UNL1       -0.0289
     13 C         140.0633  138.3097  164.4108 C.3     1  UNL1        0.0315
     14 C         139.8619  139.7397  164.8165 C.3     1  UNL1        0.0424
     15 C         138.9771  140.7746  164.1872 C.3     1  UNL1        0.0735
     16 N         138.0751  140.6353  162.9969 N.3     1  UNL1       -0.2935
     17 C         137.8351  139.4264  162.1418 C.3     1  UNL1        0.0950
     18 H         138.4004  141.3491  162.3448 H       1  UNL1        0.1236
@<TRIPOS>BOND
     1    11    12    2
     2    12    13    1
     3    13    14    1
     4    14     1    1
     5     1     2   ar
     6     2     3   ar
     7     3     4   ar
     8     4     5   ar
     9     5     6   ar
    10     6     7   ar
    11     7     8   ar
    12     8     9   ar
    13     9    10   ar
    14    14    15    1
    15    15    16    1
    16    16    17    1
    17    17    11    1
    18    10     1   ar
    19     9     4   ar
    20    16    18    1
@<TRIPOS>MOLECULE
*****
 18 20 0 0 0
SMALL
GASTEIGER

@<TRIPOS>ATOM
      1 C         139.5672  140.9362  166.4043 C.ar    1  UNL1       -0.0208
      2 C         139.1594  142.1271  165.5885 C.ar    1  UNL1       -0.0042
      3 C         138.6602  141.9404  164.1864 C.ar    1  UNL1       -0.0003
      4 C         138.5688  140.5628  163.6000 C.ar    1  UNL1       -0.0000
      5 C         138.0696  140.3761  162.1979 C.ar    1  UNL1       -0.0000
      6 C         137.9781  138.9986  161.6115 C.ar    1  UNL1       -0.0000
      7 C         138.3859  137.8076  162.4273 C.ar    1  UNL1       -0.0000
      8 C         138.8850  137.9943  163.8294 C.ar    1  UNL1       -0.0000
      9 C         138.9765  139.3719  164.4157 C.ar    1  UNL1       -0.0003
     10 C         139.4757  139.5586  165.8179 C.ar    1  UNL1       -0.0042
     11 C         141.4047  142.2179  170.6995 C.2     1  UNL1       -0.0136
     12 C         141.3197  142.9274  169.3807 C.2     1  UNL1       -0.0289
     13 C         140.7241  142.4401  168.0931 C.3     1  UNL1        0.0315
     14 C         140.0664  141.1229  167.8064 C.3     1  UNL1        0.0424
     15 C         139.8418  139.9676  168.7364 C.3     1  UNL1        0.0735
     16 N         140.2195  139.8442  170.1828 N.3     1  UNL1       -0.2935
     17 C         140.9151  140.8457  171.0565 C.3     1  UNL1        0.0950
     18 H         140.8125  139.0152  170.2222 H       1  UNL1        0.1236
@<TRIPOS>BOND
     1    11    12    2
     2    12    13    1
     3    13    14    1
     4    14     1    1
     5     1     2   ar
     6     2     3   ar
     7     3     4   ar
     8     4     5   ar
     9     5     6   ar
    10     6     7   ar
    11     7     8   ar
    12     8     9   ar
    13     9    10   ar
    14    14    15    1
    15    15    16    1
    16    16    17    1
    17    17    11    1
    18    10     1   ar
    19     9     4   ar
    20    16    18    1
@<TRIPOS>MOLECULE
*****
 18 20 0 0 0
SMALL
GASTEIGER

@<TRIPOS>ATOM
      1 C         140.2023  139.9824  167.0159 C.ar    1  UNL1       -0.0208
      2 C         138.8172  139.4075  166.9839 C.ar    1  UNL1       -0.0042
      3 C         138.3236  138.7085  165.7520 C.ar    1  UNL1       -0.0003
      4 C         139.2150  138.5843  164.5520 C.ar    1  UNL1       -0.0000
      5 C         138.7214  137.8853  163.3201 C.ar    1  UNL1       -0.0000
      6 C         139.6128  137.7612  162.1201 C.ar    1  UNL1       -0.0000
      7 C         140.9979  138.3362  162.1521 C.ar    1  UNL1       -0.0000
      8 C         141.4916  139.0352  163.3840 C.ar    1  UNL1       -0.0000
      9 C         140.6001  139.1593  164.5840 C.ar    1  UNL1       -0.0003
     10 C         141.0937  139.8583  165.8160 C.ar    1  UNL1       -0.0042
     11 C         142.2965  142.5669  170.5377 C.2     1  UNL1       -0.0136
     12 C         142.5582  142.4621  169.0644 C.2     1  UNL1       -0.0289
     13 C         141.8459  141.6230  168.0453 C.3     1  UNL1        0.0315
     14 C         140.6959  140.6815  168.2479 C.3     1  UNL1        0.0424
     15 C         139.9742  140.3465  169.5195 C.3     1  UNL1        0.0735
     16 N         140.2243  140.8703  170.9026 N.3     1  UNL1       -0.2935
     17 C         141.2578  141.8585  171.3557 C.3     1  UNL1        0.0950
     18 H         140.4045  140.0371  171.4627 H       1  UNL1        0.1236
@<TRIPOS>BOND
     1    11    12    2
     2    12    13    1
     3    13    14    1
     4    14     1    1
     5     1     2   ar
     6     2     3   ar
     7     3     4   ar
     8     4     5   ar
     9     5     6   ar
    10     6     7   ar
    11     7     8   ar
    12     8     9   ar
    13     9    10   ar
    14    14    15    1
    15    15    16    1
    16    16    17    1
    17    17    11    1
    18    10     1   ar
    19     9     4   ar
    20    16    18    1
