@<TRIPOS>MOLECULE
*****
 31 34 0 0 0
SMALL
GASTEIGER

@<TRIPOS>ATOM
      1 C         140.8699  146.2756  156.8863 C.ar    1  UNL1        0.1773
      2 C         142.1810  145.7335  157.3733 C.ar    1  UNL1        0.1402
      3 N         142.3001  145.2023  158.7710 N.ar    1  UNL1       -0.2089
      4 C         141.1082  145.2131  159.6816 C.ar    1  UNL1        0.2205
      5 N         139.7972  145.7552  159.1945 N.ar    1  UNL1       -0.2089
      6 C         139.6780  146.2864  157.7968 C.ar    1  UNL1        0.1402
      7 N         141.2274  144.6819  161.0794 N.pl3   1  UNL1       -0.2747
      8 C         141.9143  143.3717  161.3277 C.3     1  UNL1        0.1152
      9 C         142.0334  142.8405  162.7254 C.3     1  UNL1        0.1167
     10 N         141.4657  143.6194  163.8747 N.pl3   1  UNL1       -0.2585
     11 C         140.7788  144.9295  163.6263 C.3     1  UNL1        0.1167
     12 C         140.6596  145.4608  162.2287 C.3     1  UNL1        0.1152
     13 C         141.5848  143.0881  165.2724 C.ar    1  UNL1        0.3185
     14 N         140.4865  143.0366  166.2927 N.ar    1  UNL1       -0.1701
     15 C         141.0461  142.4318  167.5461 C.ar    1  UNL1        0.2766
     16 N         142.4904  142.1094  167.3005 N.ar    1  UNL1       -0.0499
     17 O         142.8233  142.5151  165.8953 O.2     1  UNL1       -0.3164
     18 C         140.2936  142.1914  168.8213 C.3     1  UNL1        0.4557
     19 F         139.5411  141.9511  170.0964 F       1  UNL1       -0.1631
     20 F         140.1296  143.6713  169.0034 F       1  UNL1       -0.1631
     21 F         140.4577  140.7116  168.6392 F       1  UNL1       -0.1631
     22 O         140.7507  146.8068  155.4885 O.3     1  UNL1       -0.4675
     23 C         139.4694  147.4401  155.0335 C.3     1  UNL1        0.2329
     24 C         138.9805  149.9836  155.2376 C.ar    1  UNL1        0.0871
     25 C         138.9941  151.3608  154.6433 C.ar    1  UNL1        0.1089
     26 N         139.5103  151.5717  153.2508 N.ar    1  UNL1       -0.2416
     27 C         140.0128  150.4054  152.4525 C.ar    1  UNL1        0.0987
     28 C         139.9991  149.0283  153.0468 C.ar    1  UNL1        0.0207
     29 C         139.4830  148.8173  154.4393 C.ar    1  UNL1        0.0339
     30 N         137.9482  149.5617  158.0226 N.1     1  UNL1       -0.1908
     31 C         138.4643  149.7727  156.6301 C.1     1  UNL1        0.1018
@<TRIPOS>BOND
     1    30    31    3
     2    31    24    1
     3    24    25   ar
     4    25    26   ar
     5    26    27   ar
     6    27    28   ar
     7    28    29   ar
     8    29    23    1
     9    23    22    1
    10    22     1    1
    11     1     2   ar
    12     2     3   ar
    13     3     4   ar
    14     4     7    1
    15     7     8    1
    16     8     9    1
    17     9    10    1
    18    10    13    1
    19    13    14   ar
    20    14    15   ar
    21    15    18    1
    22    18    19    1
    23    18    20    1
    24    18    21    1
    25    15    16   ar
    26    16    17   ar
    27    10    11    1
    28    11    12    1
    29     4     5   ar
    30     5     6   ar
    31    29    24   ar
    32     6     1   ar
    33    12     7    1
    34    17    13   ar
@<TRIPOS>MOLECULE
*****
 31 34 0 0 0
SMALL
GASTEIGER

@<TRIPOS>ATOM
      1 C         141.2883  138.0484  158.0846 C.ar    1  UNL1        0.1773
      2 C         142.3739  137.9284  159.1128 C.ar    1  UNL1        0.1402
      3 N         142.0688  138.1841  160.5590 N.ar    1  UNL1       -0.2089
      4 C         140.6781  138.5597  160.9770 C.ar    1  UNL1        0.2205
      5 N         139.5925  138.6797  159.9489 N.ar    1  UNL1       -0.2089
      6 C         139.8976  138.4241  158.5027 C.ar    1  UNL1        0.1402
      7 N         140.3729  138.8154  162.4233 N.pl3   1  UNL1       -0.2747
      8 C         140.9777  139.9983  163.1196 C.3     1  UNL1        0.1152
      9 C         140.6726  140.2540  164.5658 C.3     1  UNL1        0.1167
     10 N         139.7626  139.3268  165.3156 N.pl3   1  UNL1       -0.2585
     11 C         139.1578  138.1439  164.6192 C.3     1  UNL1        0.1167
     12 C         139.4630  137.8882  163.1731 C.3     1  UNL1        0.1152
     13 C         139.4575  139.5825  166.7619 C.ar    1  UNL1        0.3185
     14 N         140.2219  140.4927  167.6767 N.ar    1  UNL1       -0.1701
     15 C         139.5711  140.4456  169.0274 C.ar    1  UNL1        0.2766
     16 N         138.4044  139.5061  168.9473 N.ar    1  UNL1       -0.0499
     17 O         138.3342  138.9727  167.5471 O.2     1  UNL1       -0.3164
     18 C         140.0100  141.2046  170.2445 C.3     1  UNL1        0.4557
     19 F         140.4488  141.9636  171.4616 F       1  UNL1       -0.1631
     20 F         140.0962  139.9201  171.0144 F       1  UNL1       -0.1631
     21 F         139.9237  142.4890  169.4746 F       1  UNL1       -0.1631
     22 O         141.5935  137.7927  156.6384 O.3     1  UNL1       -0.4675
     23 C         142.7422  136.9056  156.2597 C.3     1  UNL1        0.2329
     24 C         141.6161  134.7455  155.3567 C.ar    1  UNL1        0.0871
     25 C         141.4543  133.2546  155.3875 C.ar    1  UNL1        0.1089
     26 N         142.2568  132.4329  156.3523 N.ar    1  UNL1       -0.2416
     27 C         143.2211  133.1021  157.2862 C.ar    1  UNL1        0.0987
     28 C         143.3829  134.5930  157.2553 C.ar    1  UNL1        0.0207
     29 C         142.5804  135.4147  156.2906 C.ar    1  UNL1        0.0339
     30 N         140.0111  136.3888  153.4271 N.1     1  UNL1       -0.1908
     31 C         140.8136  135.5672  154.3919 C.1     1  UNL1        0.1018
@<TRIPOS>BOND
     1    30    31    3
     2    31    24    1
     3    24    25   ar
     4    25    26   ar
     5    26    27   ar
     6    27    28   ar
     7    28    29   ar
     8    29    23    1
     9    23    22    1
    10    22     1    1
    11     1     2   ar
    12     2     3   ar
    13     3     4   ar
    14     4     7    1
    15     7     8    1
    16     8     9    1
    17     9    10    1
    18    10    13    1
    19    13    14   ar
    20    14    15   ar
    21    15    18    1
    22    18    19    1
    23    18    20    1
    24    18    21    1
    25    15    16   ar
    26    16    17   ar
    27    10    11    1
    28    11    12    1
    29     4     5   ar
    30     5     6   ar
    31    29    24   ar
    32     6     1   ar
    33    12     7    1
    34    17    13   ar
@<TRIPOS>MOLECULE
*****
 31 34 0 0 0
SMALL
GASTEIGER

@<TRIPOS>ATOM
      1 C         142.1158  135.9463  156.2768 C.ar    1  UNL1        0.1773
      2 C         142.9542  136.4325  157.4217 C.ar    1  UNL1        0.1402
      3 N         142.4484  137.5320  158.3078 N.ar    1  UNL1       -0.2089
      4 C         141.1043  138.1454  158.0490 C.ar    1  UNL1        0.2205
      5 N         140.2659  137.6592  156.9041 N.ar    1  UNL1       -0.2089
      6 C         140.7717  136.5597  156.0180 C.ar    1  UNL1        0.1402
      7 N         140.5985  139.2450  158.9351 N.pl3   1  UNL1       -0.2747
      8 C         141.4856  140.4078  159.2682 C.3     1  UNL1        0.1152
      9 C         140.9798  141.5073  160.1542 C.3     1  UNL1        0.1167
     10 N         139.5869  141.4441  160.7072 N.pl3   1  UNL1       -0.2585
     11 C         138.6998  140.2813  160.3741 C.3     1  UNL1        0.1167
     12 C         139.2056  139.1818  159.4880 C.3     1  UNL1        0.1152
     13 C         139.0811  142.5437  161.5933 C.ar    1  UNL1        0.3185
     14 N         139.4152  142.7315  163.0435 N.ar    1  UNL1       -0.1701
     15 C         138.6929  143.9524  163.5312 C.ar    1  UNL1        0.2766
     16 N         137.9125  144.5191  162.3823 N.ar    1  UNL1       -0.0499
     17 O         138.1524  143.6485  161.1847 O.2     1  UNL1       -0.3164
     18 C         138.7425  144.5088  164.9233 C.3     1  UNL1        0.4557
     19 F         138.7920  145.0653  166.3154 F       1  UNL1       -0.1631
     20 F         137.2919  144.1745  165.1085 F       1  UNL1       -0.1631
     21 F         140.1930  144.8431  164.7381 F       1  UNL1       -0.1631
     22 O         142.6216  134.8467  155.3907 O.3     1  UNL1       -0.4675
     23 C         142.2010  133.4288  155.6405 C.3     1  UNL1        0.2329
     24 C         142.8537  131.0257  156.3818 C.ar    1  UNL1        0.0871
     25 C         143.7496  130.1026  157.1532 C.ar    1  UNL1        0.1089
     26 N         144.8888  130.6592  157.9547 N.ar    1  UNL1       -0.2416
     27 C         145.1321  132.1390  157.9849 C.ar    1  UNL1        0.0987
     28 C         144.2361  133.0622  157.2135 C.ar    1  UNL1        0.0207
     29 C         143.0970  132.5055  156.4119 C.ar    1  UNL1        0.0339
     30 N         140.5754  129.9124  154.7787 N.1     1  UNL1       -0.1908
     31 C         141.7146  130.4691  155.5803 C.1     1  UNL1        0.1018
@<TRIPOS>BOND
     1    30    31    3
     2    31    24    1
     3    24    25   ar
     4    25    26   ar
     5    26    27   ar
     6    27    28   ar
     7    28    29   ar
     8    29    23    1
     9    23    22    1
    10    22     1    1
    11     1     2   ar
    12     2     3   ar
    13     3     4   ar
    14     4     7    1
    15     7     8    1
    16     8     9    1
    17     9    10    1
    18    10    13    1
    19    13    14   ar
    20    14    15   ar
    21    15    18    1
    22    18    19    1
    23    18    20    1
    24    18    21    1
    25    15    16   ar
    26    16    17   ar
    27    10    11    1
    28    11    12    1
    29     4     5   ar
    30     5     6   ar
    31    29    24   ar
    32     6     1   ar
    33    12     7    1
    34    17    13   ar
@<TRIPOS>MOLECULE
*****
 31 34 0 0 0
SMALL
GASTEIGER

@<TRIPOS>ATOM
      1 C         140.0474  145.6683  156.9184 C.ar    1  UNL1        0.1773
      2 C         140.5982  145.9714  158.2803 C.ar    1  UNL1        0.1402
      3 N         140.4796  144.9580  159.3798 N.ar    1  UNL1       -0.2089
      4 C         139.8102  143.6416  159.1174 C.ar    1  UNL1        0.2205
      5 N         139.2594  143.3385  157.7555 N.ar    1  UNL1       -0.2089
      6 C         139.3780  144.3519  156.6560 C.ar    1  UNL1        0.1402
      7 N         139.6916  142.6281  160.2170 N.pl3   1  UNL1       -0.2747
      8 C         140.1759  142.9591  161.5975 C.3     1  UNL1        0.1152
      9 C         140.0573  141.9457  162.6970 C.3     1  UNL1        0.1167
     10 N         139.4544  140.6013  162.4160 N.pl3   1  UNL1       -0.2585
     11 C         138.9701  140.2703  161.0355 C.3     1  UNL1        0.1167
     12 C         139.0887  141.2837  159.9360 C.3     1  UNL1        0.1152
     13 C         139.3358  139.5879  163.5155 C.ar    1  UNL1        0.3185
     14 N         138.2792  139.5613  164.5799 N.ar    1  UNL1       -0.1701
     15 C         138.5434  138.3801  165.4659 C.ar    1  UNL1        0.2766
     16 N         139.7632  137.6766  164.9490 N.ar    1  UNL1       -0.0499
     17 O         140.2529  138.4230  163.7436 O.2     1  UNL1       -0.3164
     18 C         137.7304  137.9737  166.6592 C.3     1  UNL1        0.4557
     19 F         136.9175  137.5673  167.8525 F       1  UNL1       -0.1631
     20 F         137.7839  136.5439  166.2087 F       1  UNL1       -0.1631
     21 F         137.6769  139.4035  167.1097 F       1  UNL1       -0.1631
     22 O         140.1660  146.6818  155.8189 O.3     1  UNL1       -0.4675
     23 C         138.9724  147.4972  155.4185 C.3     1  UNL1        0.2329
     24 C         138.8099  150.0707  155.7356 C.ar    1  UNL1        0.0871
     25 C         138.9957  151.4597  155.2008 C.ar    1  UNL1        0.1089
     26 N         139.5297  151.6643  153.8141 N.ar    1  UNL1       -0.2416
     27 C         139.8780  150.4799  152.9622 C.ar    1  UNL1        0.0987
     28 C         139.6922  149.0909  153.4970 C.ar    1  UNL1        0.0207
     29 C         139.1581  148.8863  154.8837 C.ar    1  UNL1        0.0339
     30 N         137.7419  149.6615  158.5091 N.1     1  UNL1       -0.1908
     31 C         138.2759  149.8661  157.1223 C.1     1  UNL1        0.1018
@<TRIPOS>BOND
     1    30    31    3
     2    31    24    1
     3    24    25   ar
     4    25    26   ar
     5    26    27   ar
     6    27    28   ar
     7    28    29   ar
     8    29    23    1
     9    23    22    1
    10    22     1    1
    11     1     2   ar
    12     2     3   ar
    13     3     4   ar
    14     4     7    1
    15     7     8    1
    16     8     9    1
    17     9    10    1
    18    10    13    1
    19    13    14   ar
    20    14    15   ar
    21    15    18    1
    22    18    19    1
    23    18    20    1
    24    18    21    1
    25    15    16   ar
    26    16    17   ar
    27    10    11    1
    28    11    12    1
    29     4     5   ar
    30     5     6   ar
    31    29    24   ar
    32     6     1   ar
    33    12     7    1
    34    17    13   ar
@<TRIPOS>MOLECULE
*****
 31 34 0 0 0
SMALL
GASTEIGER

@<TRIPOS>ATOM
      1 C         140.1967  143.9588  159.8817 C.ar    1  UNL1        0.1773
      2 C         141.6611  143.7248  159.6568 C.ar    1  UNL1        0.1402
      3 N         142.1444  142.3802  159.2005 N.ar    1  UNL1       -0.2089
      4 C         141.1632  141.2695  158.9690 C.ar    1  UNL1        0.2205
      5 N         139.6987  141.5035  159.1940 N.ar    1  UNL1       -0.2089
      6 C         139.2155  142.8482  159.6503 C.ar    1  UNL1        0.1402
      7 N         141.6464  139.9247  158.5127 N.pl3   1  UNL1       -0.2747
      8 C         141.5329  139.5377  157.0679 C.3     1  UNL1        0.1152
      9 C         142.0161  138.1930  156.6116 C.3     1  UNL1        0.1167
     10 N         142.6128  137.2354  157.5999 N.pl3   1  UNL1       -0.2585
     11 C         142.7263  137.6225  159.0447 C.3     1  UNL1        0.1167
     12 C         142.2431  138.9672  159.5011 C.3     1  UNL1        0.1152
     13 C         143.0961  135.8906  157.1436 C.ar    1  UNL1        0.3185
     14 N         143.4131  134.7210  158.0276 N.ar    1  UNL1       -0.1701
     15 C         143.8601  133.5870  157.1535 C.ar    1  UNL1        0.2766
     16 N         143.8193  134.0557  155.7291 N.ar    1  UNL1       -0.0499
     17 O         143.3471  135.4794  155.7230 O.2     1  UNL1       -0.3164
     18 C         144.2750  132.2236  157.6214 C.3     1  UNL1        0.4557
     19 F         144.6899  130.8602  158.0894 F       1  UNL1       -0.1631
     20 F         142.9851  131.6550  157.1086 F       1  UNL1       -0.1631
     21 F         145.5649  132.7921  158.1342 F       1  UNL1       -0.1631
     22 O         139.7134  145.3036  160.3381 O.3     1  UNL1       -0.4675
     23 C         140.1224  145.8313  161.6812 C.3     1  UNL1        0.2329
     24 C         141.0985  144.4568  163.6581 C.ar    1  UNL1        0.0871
     25 C         140.8917  143.6216  164.8867 C.ar    1  UNL1        0.1089
     26 N         139.5019  143.3258  165.3673 N.ar    1  UNL1       -0.2416
     27 C         138.3189  143.8651  164.6192 C.ar    1  UNL1        0.0987
     28 C         138.5258  144.7003  163.3905 C.ar    1  UNL1        0.0207
     29 C         139.9156  144.9961  162.9100 C.ar    1  UNL1        0.0339
     30 N         143.8781  145.0485  162.6970 N.1     1  UNL1       -0.1908
     31 C         142.4883  144.7526  163.1775 C.1     1  UNL1        0.1018
@<TRIPOS>BOND
     1    30    31    3
     2    31    24    1
     3    24    25   ar
     4    25    26   ar
     5    26    27   ar
     6    27    28   ar
     7    28    29   ar
     8    29    23    1
     9    23    22    1
    10    22     1    1
    11     1     2   ar
    12     2     3   ar
    13     3     4   ar
    14     4     7    1
    15     7     8    1
    16     8     9    1
    17     9    10    1
    18    10    13    1
    19    13    14   ar
    20    14    15   ar
    21    15    18    1
    22    18    19    1
    23    18    20    1
    24    18    21    1
    25    15    16   ar
    26    16    17   ar
    27    10    11    1
    28    11    12    1
    29     4     5   ar
    30     5     6   ar
    31    29    24   ar
    32     6     1   ar
    33    12     7    1
    34    17    13   ar
@<TRIPOS>MOLECULE
*****
 31 34 0 0 0
SMALL
GASTEIGER

@<TRIPOS>ATOM
      1 C         142.2271  141.0871  165.4174 C.ar    1  UNL1        0.1773
      2 C         142.3262  140.3296  164.1265 C.ar    1  UNL1        0.1402
      3 N         141.9714  141.0018  162.8334 N.ar    1  UNL1       -0.2089
      4 C         141.5176  142.4315  162.8311 C.ar    1  UNL1        0.2205
      5 N         141.4185  143.1889  164.1220 N.ar    1  UNL1       -0.2089
      6 C         141.7733  142.5167  165.4152 C.ar    1  UNL1        0.1402
      7 N         141.1628  143.1038  161.5380 N.pl3   1  UNL1       -0.2747
      8 C         141.1269  142.3104  160.2654 C.3     1  UNL1        0.1152
      9 C         140.7721  142.9826  158.9723 C.3     1  UNL1        0.1167
     10 N         140.4532  144.4481  158.9517 N.pl3   1  UNL1       -0.2585
     11 C         140.4891  145.2415  160.2242 C.3     1  UNL1        0.1167
     12 C         140.8439  144.5693  161.5174 C.3     1  UNL1        0.1152
     13 C         140.0984  145.1204  157.6585 C.ar    1  UNL1        0.3185
     14 N         139.8051  146.5799  157.4750 N.ar    1  UNL1       -0.1701
     15 C         139.5000  146.8127  156.0249 C.ar    1  UNL1        0.2766
     16 N         139.6049  145.4970  155.3122 N.ar    1  UNL1       -0.0499
     17 O         139.9747  144.4511  156.3218 O.2     1  UNL1       -0.3164
     18 C         139.1514  148.1299  155.3977 C.3     1  UNL1        0.4557
     19 F         138.8028  149.4471  154.7704 F       1  UNL1       -0.1631
     20 F         139.6921  147.6476  154.0842 F       1  UNL1       -0.1631
     21 F         138.6108  148.6123  156.7111 F       1  UNL1       -0.1631
     22 O         142.5819  140.4148  166.7106 O.3     1  UNL1       -0.4675
     23 C         141.4972  139.9302  167.6263 C.3     1  UNL1        0.2329
     24 C         141.7298  140.1369  170.2057 C.ar    1  UNL1        0.0871
     25 C         141.4413  140.8715  171.4812 C.ar    1  UNL1        0.1089
     26 N         140.6318  142.1340  171.4531 N.ar    1  UNL1       -0.2416
     27 C         140.1108  142.6619  170.1493 C.ar    1  UNL1        0.0987
     28 C         140.3992  141.9273  168.8738 C.ar    1  UNL1        0.0207
     29 C         141.2087  140.6648  168.9019 C.ar    1  UNL1        0.0339
     30 N         143.3487  137.6119  170.2620 N.1     1  UNL1       -0.1908
     31 C         142.5392  138.8744  170.2338 C.1     1  UNL1        0.1018
@<TRIPOS>BOND
     1    30    31    3
     2    31    24    1
     3    24    25   ar
     4    25    26   ar
     5    26    27   ar
     6    27    28   ar
     7    28    29   ar
     8    29    23    1
     9    23    22    1
    10    22     1    1
    11     1     2   ar
    12     2     3   ar
    13     3     4   ar
    14     4     7    1
    15     7     8    1
    16     8     9    1
    17     9    10    1
    18    10    13    1
    19    13    14   ar
    20    14    15   ar
    21    15    18    1
    22    18    19    1
    23    18    20    1
    24    18    21    1
    25    15    16   ar
    26    16    17   ar
    27    10    11    1
    28    11    12    1
    29     4     5   ar
    30     5     6   ar
    31    29    24   ar
    32     6     1   ar
    33    12     7    1
    34    17    13   ar
@<TRIPOS>MOLECULE
*****
 31 34 0 0 0
SMALL
GASTEIGER

@<TRIPOS>ATOM
      1 C         142.5044  139.4892  166.1475 C.ar    1  UNL1        0.1773
      2 C         142.2786  140.9122  165.7302 C.ar    1  UNL1        0.1402
      3 N         141.5368  141.2131  164.4617 N.ar    1  UNL1       -0.2089
      4 C         141.0208  140.0911  163.6105 C.ar    1  UNL1        0.2205
      5 N         141.2465  138.6681  164.0278 N.ar    1  UNL1       -0.2089
      6 C         141.9883  138.3671  165.2963 C.ar    1  UNL1        0.1402
      7 N         140.2789  140.3920  162.3419 N.pl3   1  UNL1       -0.2747
      8 C         139.3525  141.5698  162.2763 C.3     1  UNL1        0.1152
      9 C         138.6107  141.8708  161.0078 C.3     1  UNL1        0.1167
     10 N         138.7953  140.9938  159.8050 N.pl3   1  UNL1       -0.2585
     11 C         139.7217  139.8160  159.8706 C.3     1  UNL1        0.1167
     12 C         140.4635  139.5150  161.1391 C.3     1  UNL1        0.1152
     13 C         138.0534  141.2948  158.5364 C.ar    1  UNL1        0.3185
     14 N         137.0667  140.3923  157.8568 N.ar    1  UNL1       -0.1701
     15 C         136.5715  141.0908  156.6252 C.ar    1  UNL1        0.2766
     16 N         137.2523  142.4250  156.5436 N.ar    1  UNL1       -0.0499
     17 O         138.1681  142.5510  157.7248 O.2     1  UNL1       -0.3164
     18 C         135.5713  140.5500  155.6469 C.3     1  UNL1        0.4557
     19 F         134.5710  140.0093  154.6685 F       1  UNL1       -0.1631
     20 F         134.6115  140.2924  156.7705 F       1  UNL1       -0.1631
     21 F         136.5310  140.8076  154.5232 F       1  UNL1       -0.1631
     22 O         143.2462  139.1882  167.4161 O.3     1  UNL1       -0.4675
     23 C         142.5561  139.3304  168.7402 C.3     1  UNL1        0.2329
     24 C         140.7943  141.1653  169.2687 C.ar    1  UNL1        0.0871
     25 C         140.4563  142.5284  169.7958 C.ar    1  UNL1        0.1089
     26 N         141.5423  143.4197  170.3214 N.ar    1  UNL1       -0.2416
     27 C         142.9661  142.9479  170.3200 C.ar    1  UNL1        0.0987
     28 C         143.3040  141.5849  169.7929 C.ar    1  UNL1        0.0207
     29 C         142.2181  140.6936  169.2673 C.ar    1  UNL1        0.0339
     30 N         138.6224  139.3827  168.2174 N.1     1  UNL1       -0.1908
     31 C         139.7083  140.2740  168.7431 C.1     1  UNL1        0.1018
@<TRIPOS>BOND
     1    30    31    3
     2    31    24    1
     3    24    25   ar
     4    25    26   ar
     5    26    27   ar
     6    27    28   ar
     7    28    29   ar
     8    29    23    1
     9    23    22    1
    10    22     1    1
    11     1     2   ar
    12     2     3   ar
    13     3     4   ar
    14     4     7    1
    15     7     8    1
    16     8     9    1
    17     9    10    1
    18    10    13    1
    19    13    14   ar
    20    14    15   ar
    21    15    18    1
    22    18    19    1
    23    18    20    1
    24    18    21    1
    25    15    16   ar
    26    16    17   ar
    27    10    11    1
    28    11    12    1
    29     4     5   ar
    30     5     6   ar
    31    29    24   ar
    32     6     1   ar
    33    12     7    1
    34    17    13   ar
@<TRIPOS>MOLECULE
*****
 31 34 0 0 0
SMALL
GASTEIGER

@<TRIPOS>ATOM
      1 C         141.7457  136.0398  156.0192 C.ar    1  UNL1        0.1773
      2 C         142.6591  136.5455  157.0962 C.ar    1  UNL1        0.1402
      3 N         142.1900  137.6167  158.0356 N.ar    1  UNL1       -0.2089
      4 C         140.8075  138.1822  157.8979 C.ar    1  UNL1        0.2205
      5 N         139.8942  137.6764  156.8209 N.ar    1  UNL1       -0.2089
      6 C         140.3632  136.6053  155.8815 C.ar    1  UNL1        0.1402
      7 N         140.3384  139.2534  158.8373 N.pl3   1  UNL1       -0.2747
      8 C         141.0008  140.5992  158.8310 C.3     1  UNL1        0.1152
      9 C         140.5317  141.6704  159.7704 C.3     1  UNL1        0.1167
     10 N         139.4002  141.3958  160.7160 N.pl3   1  UNL1       -0.2585
     11 C         138.7378  140.0501  160.7222 C.3     1  UNL1        0.1167
     12 C         139.2068  138.9788  159.7829 C.3     1  UNL1        0.1152
     13 C         138.9310  142.4671  161.6554 C.ar    1  UNL1        0.3185
     14 N         139.3711  142.6469  163.0780 N.ar    1  UNL1       -0.1701
     15 C         138.6515  143.8375  163.6389 C.ar    1  UNL1        0.2766
     16 N         137.7666  144.3936  162.5628 N.ar    1  UNL1       -0.0499
     17 O         137.9394  143.5466  161.3369 O.2     1  UNL1       -0.3164
     18 C         138.7920  144.3773  165.0313 C.3     1  UNL1        0.4557
     19 F         138.9325  144.9171  166.4238 F       1  UNL1       -0.1631
     20 F         140.2850  144.2922  164.9137 F       1  UNL1       -0.1631
     21 F         137.2990  144.4624  165.1490 F       1  UNL1       -0.1631
     22 O         142.2149  134.9685  155.0798 O.3     1  UNL1       -0.4675
     23 C         141.7458  133.5552  155.2596 C.3     1  UNL1        0.2329
     24 C         143.7949  132.0230  155.7114 C.ar    1  UNL1        0.0871
     25 C         144.6786  130.8818  155.3032 C.ar    1  UNL1        0.1089
     26 N         144.3972  130.1316  154.0352 N.ar    1  UNL1       -0.2416
     27 C         143.2320  130.5225  153.1753 C.ar    1  UNL1        0.0987
     28 C         142.3482  131.6637  153.5835 C.ar    1  UNL1        0.0207
     29 C         142.6297  132.4139  154.8515 C.ar    1  UNL1        0.0339
     30 N         144.3578  133.5235  158.2474 N.1     1  UNL1       -0.1908
     31 C         144.0763  132.7732  156.9794 C.1     1  UNL1        0.1018
@<TRIPOS>BOND
     1    30    31    3
     2    31    24    1
     3    24    25   ar
     4    25    26   ar
     5    26    27   ar
     6    27    28   ar
     7    28    29   ar
     8    29    23    1
     9    23    22    1
    10    22     1    1
    11     1     2   ar
    12     2     3   ar
    13     3     4   ar
    14     4     7    1
    15     7     8    1
    16     8     9    1
    17     9    10    1
    18    10    13    1
    19    13    14   ar
    20    14    15   ar
    21    15    18    1
    22    18    19    1
    23    18    20    1
    24    18    21    1
    25    15    16   ar
    26    16    17   ar
    27    10    11    1
    28    11    12    1
    29     4     5   ar
    30     5     6   ar
    31    29    24   ar
    32     6     1   ar
    33    12     7    1
    34    17    13   ar
@<TRIPOS>MOLECULE
*****
 31 34 0 0 0
SMALL
GASTEIGER

@<TRIPOS>ATOM
      1 C         139.3902  141.1792  165.4494 C.ar    1  UNL1        0.1773
      2 C         139.7954  142.6221  165.3875 C.ar    1  UNL1        0.1402
      3 N         139.9451  143.3028  164.0593 N.ar    1  UNL1       -0.2089
      4 C         139.6896  142.5406  162.7929 C.ar    1  UNL1        0.2205
      5 N         139.2844  141.0977  162.8548 N.ar    1  UNL1       -0.2089
      6 C         139.1347  140.4170  164.1830 C.ar    1  UNL1        0.1402
      7 N         139.8394  143.2213  161.4646 N.pl3   1  UNL1       -0.2747
      8 C         139.6666  142.4382  160.1970 C.3     1  UNL1        0.1152
      9 C         139.8163  143.1188  158.8687 C.3     1  UNL1        0.1167
     10 N         140.1388  144.5825  158.8081 N.pl3   1  UNL1       -0.2585
     11 C         140.3116  145.3655  160.0758 C.3     1  UNL1        0.1167
     12 C         140.1619  144.6849  161.4041 C.3     1  UNL1        0.1152
     13 C         140.2885  145.2632  157.4798 C.ar    1  UNL1        0.3185
     14 N         139.6528  146.5608  157.0774 N.ar    1  UNL1       -0.1701
     15 C         140.0716  146.8653  155.6696 C.ar    1  UNL1        0.2766
     16 N         140.9663  145.7558  155.2020 N.ar    1  UNL1       -0.0499
     17 O         141.1004  144.7657  156.3207 O.2     1  UNL1       -0.3164
     18 C         139.6669  148.0680  154.8699 C.3     1  UNL1        0.4557
     19 F         139.2622  149.2708  154.0702 F       1  UNL1       -0.1631
     20 F         140.4374  147.5454  153.6939 F       1  UNL1       -0.1631
     21 F         138.8963  148.5907  156.0460 F       1  UNL1       -0.1631
     22 O         139.2404  140.4985  166.7777 O.3     1  UNL1       -0.4675
     23 C         140.4579  140.0775  167.5461 C.3     1  UNL1        0.2329
     24 C         140.3207  141.1374  169.9143 C.ar    1  UNL1        0.0871
     25 C         140.8907  142.0387  170.9690 C.ar    1  UNL1        0.1089
     26 N         142.1679  142.7817  170.7105 N.ar    1  UNL1       -0.2416
     27 C         142.8751  142.6232  169.3973 C.ar    1  UNL1        0.0987
     28 C         142.3051  141.7218  168.3425 C.ar    1  UNL1        0.0207
     29 C         141.0279  140.9789  168.6010 C.ar    1  UNL1        0.0339
     30 N         137.7663  139.6515  170.4312 N.1     1  UNL1       -0.1908
     31 C         139.0435  140.3944  170.1727 C.1     1  UNL1        0.1018
@<TRIPOS>BOND
     1    30    31    3
     2    31    24    1
     3    24    25   ar
     4    25    26   ar
     5    26    27   ar
     6    27    28   ar
     7    28    29   ar
     8    29    23    1
     9    23    22    1
    10    22     1    1
    11     1     2   ar
    12     2     3   ar
    13     3     4   ar
    14     4     7    1
    15     7     8    1
    16     8     9    1
    17     9    10    1
    18    10    13    1
    19    13    14   ar
    20    14    15   ar
    21    15    18    1
    22    18    19    1
    23    18    20    1
    24    18    21    1
    25    15    16   ar
    26    16    17   ar
    27    10    11    1
    28    11    12    1
    29     4     5   ar
    30     5     6   ar
    31    29    24   ar
    32     6     1   ar
    33    12     7    1
    34    17    13   ar
