@<TRIPOS>MOLECULE
*****
 25 28 0 0 0
SMALL
GASTEIGER

@<TRIPOS>ATOM
      1 C         141.8545  138.0667  159.3260 C.3     1  UNL1        0.0826
      2 C         142.4493  137.7693  160.6705 C.3     1  UNL1        0.0309
      3 C         141.6590  138.0392  161.9165 C.3     1  UNL1        0.0954
      4 N         140.2739  138.6065  161.8180 N.am    1  UNL1       -0.2642
      5 C         139.4836  138.8764  163.0641 C.2     1  UNL1        0.3039
      6 O         138.0985  139.4437  162.9656 O.2     1  UNL1       -0.2526
      7 N         140.0784  138.5791  164.4086 N.am    1  UNL1       -0.2901
      8 C         139.6791  138.9038  160.4735 C.3     1  UNL1        0.0954
      9 C         140.4694  138.6339  159.2275 C.3     1  UNL1        0.0309
     10 H         140.9875  138.2068  164.4732 H       1  UNL1        0.1509
     11 C         143.8788  135.6559  155.0867 C.3     1  UNL1        0.0773
     12 C         143.5753  136.6886  156.1314 C.ar    1  UNL1        0.1809
     13 N         144.1466  138.0742  156.1935 N.ar    1  UNL1       -0.0606
     14 O         143.5715  138.7590  157.3978 O.2     1  UNL1       -0.3374
     15 C         142.6448  137.7967  158.0799 C.ar    1  UNL1        0.2359
     16 N         142.6471  136.5172  157.2972 N.ar    1  UNL1       -0.1949
     17 C         139.2882  138.8490  165.6547 C.3     1  UNL1        0.0774
     18 C         138.0979  138.5704  166.5239 C.3     1  UNL1        0.0259
     19 C         139.1096  139.5951  166.9436 C.3     1  UNL1        0.0420
     20 C         139.5907  140.6175  167.9301 C.ar    1  UNL1       -0.0208
     21 C         140.3255  141.8343  167.4511 C.ar    1  UNL1       -0.0042
     22 C         140.8066  142.8567  168.4376 C.ar    1  UNL1       -0.0003
     23 C         140.5529  142.6623  169.9032 C.ar    1  UNL1       -0.0000
     24 C         139.8181  141.4455  170.3822 C.ar    1  UNL1       -0.0003
     25 C         139.3370  140.4231  169.3956 C.ar    1  UNL1       -0.0042
@<TRIPOS>BOND
     1    11    12    1
     2    12    13   ar
     3    13    14   ar
     4    14    15   ar
     5    15     1    1
     6     1     2    1
     7     2     3    1
     8     3     4    1
     9     4     5   am
    10     5     6    2
    11     5     7   am
    12     7    17    1
    13    17    18    1
    14    18    19    1
    15    19    20    1
    16    20    21   ar
    17    21    22   ar
    18    22    23   ar
    19    23    24   ar
    20    24    25   ar
    21     4     8    1
    22     8     9    1
    23    15    16   ar
    24    16    12   ar
    25     9     1    1
    26    19    17    1
    27    25    20   ar
    28     7    10    1
@<TRIPOS>MOLECULE
*****
 25 28 0 0 0
SMALL
GASTEIGER

@<TRIPOS>ATOM
      1 C         140.6311  144.2967  160.9149 C.3     1  UNL1        0.0826
      2 C         140.2134  142.8563  160.9384 C.3     1  UNL1        0.0309
      3 C         139.9481  142.1736  162.2473 C.3     1  UNL1        0.0954
      4 N         140.1003  142.9314  163.5329 N.am    1  UNL1       -0.2642
      5 C         139.8349  142.2486  164.8419 C.2     1  UNL1        0.3039
      6 O         139.9872  143.0064  166.1274 O.2     1  UNL1       -0.2526
      7 N         139.4173  140.8082  164.8654 N.am    1  UNL1       -0.2901
      8 C         140.5180  144.3718  163.5094 C.3     1  UNL1        0.0954
      9 C         140.7833  145.0545  162.2004 C.3     1  UNL1        0.0309
     10 H         139.3174  140.3108  164.0216 H       1  UNL1        0.1509
     11 C         139.9140  146.6880  156.2620 C.3     1  UNL1        0.0773
     12 C         140.5669  146.0786  157.4672 C.ar    1  UNL1        0.1809
     13 N         142.0430  145.9816  157.7159 N.ar    1  UNL1       -0.0606
     14 O         142.2467  145.3023  159.0377 O.2     1  UNL1       -0.3374
     15 C         140.8965  144.9795  159.6059 C.ar    1  UNL1        0.2359
     16 N         139.8584  145.4593  158.6353 N.ar    1  UNL1       -0.1949
     17 C         139.1519  140.1254  166.1744 C.3     1  UNL1        0.0774
     18 C         138.3757  139.1325  166.9877 C.3     1  UNL1        0.0259
     19 C         139.4684  139.9358  167.6283 C.3     1  UNL1        0.0420
     20 C         140.2821  140.2902  168.8376 C.ar    1  UNL1       -0.0208
     21 C         141.6004  139.6164  169.0783 C.ar    1  UNL1       -0.0042
     22 C         142.4141  139.9708  170.2875 C.ar    1  UNL1       -0.0003
     23 C         141.9094  140.9991  171.2561 C.ar    1  UNL1       -0.0000
     24 C         140.5910  141.6729  171.0154 C.ar    1  UNL1       -0.0003
     25 C         139.7774  141.3184  169.8061 C.ar    1  UNL1       -0.0042
@<TRIPOS>BOND
     1    11    12    1
     2    12    13   ar
     3    13    14   ar
     4    14    15   ar
     5    15     1    1
     6     1     2    1
     7     2     3    1
     8     3     4    1
     9     4     5   am
    10     5     6    2
    11     5     7   am
    12     7    17    1
    13    17    18    1
    14    18    19    1
    15    19    20    1
    16    20    21   ar
    17    21    22   ar
    18    22    23   ar
    19    23    24   ar
    20    24    25   ar
    21     4     8    1
    22     8     9    1
    23    15    16   ar
    24    16    12   ar
    25     9     1    1
    26    19    17    1
    27    25    20   ar
    28     7    10    1
@<TRIPOS>MOLECULE
*****
 25 28 0 0 0
SMALL
GASTEIGER

@<TRIPOS>ATOM
      1 C         142.9202  138.9162  165.2088 C.3     1  UNL1        0.0826
      2 C         142.0052  138.0286  164.4184 C.3     1  UNL1        0.0309
      3 C         142.1761  137.9077  162.9331 C.3     1  UNL1        0.0954
      4 N         143.2621  138.6744  162.2382 N.am    1  UNL1       -0.2642
      5 C         143.4329  138.5535  160.7528 C.2     1  UNL1        0.3039
      6 O         144.5189  139.3202  160.0579 O.2     1  UNL1       -0.2526
      7 N         142.5179  137.6659  159.9624 N.am    1  UNL1       -0.2901
      8 C         144.1771  139.5620  163.0286 C.3     1  UNL1        0.0954
      9 C         144.0062  139.6829  164.5139 C.3     1  UNL1        0.0309
     10 H         141.8052  137.1626  160.4185 H       1  UNL1        0.1509
     11 C         141.0940  140.3396  169.9543 C.3     1  UNL1        0.0773
     12 C         141.9100  139.6914  168.8754 C.ar    1  UNL1        0.1809
     13 N         143.0630  138.7549  169.0843 N.ar    1  UNL1       -0.0606
     14 O         143.5818  138.3505  167.7362 O.2     1  UNL1       -0.3374
     15 C         142.7494  139.0371  166.6942 C.ar    1  UNL1        0.2359
     16 N         141.7162  139.8658  167.3982 N.ar    1  UNL1       -0.1949
     17 C         142.6888  137.5449  158.4770 C.3     1  UNL1        0.0774
     18 C         142.9886  138.1735  157.1485 C.3     1  UNL1        0.0259
     19 C         142.6849  136.7070  157.2329 C.3     1  UNL1        0.0420
     20 C         142.5073  135.3766  156.5634 C.ar    1  UNL1       -0.0208
     21 C         141.6412  135.2601  155.3443 C.ar    1  UNL1       -0.0042
     22 C         141.4636  133.9296  154.6747 C.ar    1  UNL1       -0.0003
     23 C         142.1522  132.7155  155.2243 C.ar    1  UNL1       -0.0000
     24 C         143.0183  132.8320  156.4435 C.ar    1  UNL1       -0.0003
     25 C         143.1959  134.1626  157.1130 C.ar    1  UNL1       -0.0042
@<TRIPOS>BOND
     1    11    12    1
     2    12    13   ar
     3    13    14   ar
     4    14    15   ar
     5    15     1    1
     6     1     2    1
     7     2     3    1
     8     3     4    1
     9     4     5   am
    10     5     6    2
    11     5     7   am
    12     7    17    1
    13    17    18    1
    14    18    19    1
    15    19    20    1
    16    20    21   ar
    17    21    22   ar
    18    22    23   ar
    19    23    24   ar
    20    24    25   ar
    21     4     8    1
    22     8     9    1
    23    15    16   ar
    24    16    12   ar
    25     9     1    1
    26    19    17    1
    27    25    20   ar
    28     7    10    1
@<TRIPOS>MOLECULE
*****
 25 28 0 0 0
SMALL
GASTEIGER

@<TRIPOS>ATOM
      1 C         142.2926  138.1860  159.9292 C.3     1  UNL1        0.0826
      2 C         140.8546  138.5198  160.1949 C.3     1  UNL1        0.0309
      3 C         140.3659  138.6610  161.6060 C.3     1  UNL1        0.0954
      4 N         141.3153  138.4685  162.7513 N.am    1  UNL1       -0.2642
      5 C         140.8265  138.6098  164.1625 C.2     1  UNL1        0.3039
      6 O         141.7759  138.4173  165.3078 O.2     1  UNL1       -0.2526
      7 N         139.3885  138.9436  164.4282 N.am    1  UNL1       -0.2901
      8 C         142.7533  138.1348  162.4855 C.3     1  UNL1        0.0954
      9 C         143.2420  137.9935  161.0745 C.3     1  UNL1        0.0309
     10 H         138.7654  139.0699  163.6765 H       1  UNL1        0.1509
     11 C         143.2065  136.2538  155.1008 C.3     1  UNL1        0.0773
     12 C         143.2014  137.1567  156.2987 C.ar    1  UNL1        0.1809
     13 N         143.8656  138.4983  156.3944 N.ar    1  UNL1       -0.0606
     14 O         143.6060  139.0471  157.7661 O.2     1  UNL1       -0.3374
     15 C         142.7814  138.0448  158.5180 C.ar    1  UNL1        0.2359
     16 N         142.5314  136.8764  157.6112 N.ar    1  UNL1       -0.1949
     17 C         138.8998  139.0848  165.8394 C.3     1  UNL1        0.0774
     18 C         137.8948  138.7605  166.9046 C.3     1  UNL1        0.0259
     19 C         139.0582  139.6538  167.2182 C.3     1  UNL1        0.0420
     20 C         139.8213  140.4982  168.1952 C.ar    1  UNL1       -0.0208
     21 C         140.1633  139.9534  169.5504 C.ar    1  UNL1       -0.0042
     22 C         140.9264  140.7977  170.5274 C.ar    1  UNL1       -0.0003
     23 C         141.3477  142.1869  170.1494 C.ar    1  UNL1       -0.0000
     24 C         141.0058  142.7316  168.7943 C.ar    1  UNL1       -0.0003
     25 C         140.2426  141.8872  167.8172 C.ar    1  UNL1       -0.0042
@<TRIPOS>BOND
     1    11    12    1
     2    12    13   ar
     3    13    14   ar
     4    14    15   ar
     5    15     1    1
     6     1     2    1
     7     2     3    1
     8     3     4    1
     9     4     5   am
    10     5     6    2
    11     5     7   am
    12     7    17    1
    13    17    18    1
    14    18    19    1
    15    19    20    1
    16    20    21   ar
    17    21    22   ar
    18    22    23   ar
    19    23    24   ar
    20    24    25   ar
    21     4     8    1
    22     8     9    1
    23    15    16   ar
    24    16    12   ar
    25     9     1    1
    26    19    17    1
    27    25    20   ar
    28     7    10    1
@<TRIPOS>MOLECULE
*****
 25 28 0 0 0
SMALL
GASTEIGER

@<TRIPOS>ATOM
      1 C         141.6668  144.0949  160.4346 C.3     1  UNL1        0.0826
      2 C         142.1770  142.6848  160.3967 C.3     1  UNL1        0.0309
      3 C         142.3489  141.9149  161.6725 C.3     1  UNL1        0.0954
      4 N         142.0105  142.5550  162.9861 N.am    1  UNL1       -0.2642
      5 C         142.1823  141.7850  164.2620 C.2     1  UNL1        0.3039
      6 O         141.8440  142.4251  165.5757 O.2     1  UNL1       -0.2526
      7 N         142.6925  140.3750  164.2241 N.am    1  UNL1       -0.2901
      8 C         141.5003  143.9650  163.0241 C.3     1  UNL1        0.0954
      9 C         141.3285  144.7350  161.7483 C.3     1  UNL1        0.0309
     10 H         142.9146  139.9549  163.3618 H       1  UNL1        0.1509
     11 C         139.4921  146.8042  156.4582 C.3     1  UNL1        0.0773
     12 C         140.4954  146.1102  157.3311 C.ar    1  UNL1        0.1809
     13 N         141.9658  145.9893  157.0600 N.ar    1  UNL1       -0.0606
     14 O         142.5835  145.2196  158.1896 O.2     1  UNL1       -0.3374
     15 C         141.4950  144.8649  159.1588 C.ar    1  UNL1        0.2359
     16 N         140.2045  145.4152  158.6281 N.ar    1  UNL1       -0.1949
     17 C         142.8644  139.6050  165.4999 C.3     1  UNL1        0.0774
     18 C         143.4786  138.4645  166.2561 C.3     1  UNL1        0.0259
     19 C         142.5479  139.4119  166.9533 C.3     1  UNL1        0.0420
     20 C         141.8278  139.8474  168.1950 C.ar    1  UNL1       -0.0208
     21 C         142.5945  140.0862  169.4619 C.ar    1  UNL1       -0.0042
     22 C         141.8744  140.5217  170.7036 C.ar    1  UNL1       -0.0003
     23 C         140.3875  140.7184  170.6783 C.ar    1  UNL1       -0.0000
     24 C         139.6208  140.4796  169.4114 C.ar    1  UNL1       -0.0003
     25 C         140.3410  140.0440  168.1697 C.ar    1  UNL1       -0.0042
@<TRIPOS>BOND
     1    11    12    1
     2    12    13   ar
     3    13    14   ar
     4    14    15   ar
     5    15     1    1
     6     1     2    1
     7     2     3    1
     8     3     4    1
     9     4     5   am
    10     5     6    2
    11     5     7   am
    12     7    17    1
    13    17    18    1
    14    18    19    1
    15    19    20    1
    16    20    21   ar
    17    21    22   ar
    18    22    23   ar
    19    23    24   ar
    20    24    25   ar
    21     4     8    1
    22     8     9    1
    23    15    16   ar
    24    16    12   ar
    25     9     1    1
    26    19    17    1
    27    25    20   ar
    28     7    10    1
@<TRIPOS>MOLECULE
*****
 25 28 0 0 0
SMALL
GASTEIGER

@<TRIPOS>ATOM
      1 C         139.2382  139.8564  166.6659 C.3     1  UNL1        0.0826
      2 C         139.6236  140.9405  165.7036 C.3     1  UNL1        0.0309
      3 C         139.4608  140.7262  164.2279 C.3     1  UNL1        0.0954
      4 N         138.9125  139.4278  163.7146 N.am    1  UNL1       -0.2642
      5 C         138.7497  139.2135  162.2389 C.2     1  UNL1        0.3039
      6 O         138.2015  137.9151  161.7256 O.2     1  UNL1       -0.2526
      7 N         139.1351  140.2977  161.2766 N.am    1  UNL1       -0.2901
      8 C         138.5272  138.3436  164.6769 C.3     1  UNL1        0.0954
      9 C         138.6900  138.5579  166.1525 C.3     1  UNL1        0.0309
     10 H         139.4949  141.1499  161.6135 H       1  UNL1        0.1509
     11 C         141.1228  141.4632  171.3293 C.3     1  UNL1        0.0773
     12 C         140.2672  140.8092  170.2851 C.ar    1  UNL1        0.1809
     13 N         139.0357  139.9914  170.5397 N.ar    1  UNL1       -0.0606
     14 O         138.5004  139.5350  169.2149 O.2     1  UNL1       -0.3374
     15 C         139.4010  140.0706  168.1416 C.ar    1  UNL1        0.2359
     16 N         140.4929  140.8581  168.8030 N.ar    1  UNL1       -0.1949
     17 C         138.9723  140.0834  159.8009 C.3     1  UNL1        0.0774
     18 C         138.2742  140.3999  158.5115 C.3     1  UNL1        0.0259
     19 C         139.3884  139.3958  158.5343 C.3     1  UNL1        0.0420
     20 C         140.2718  138.4192  157.8163 C.ar    1  UNL1       -0.0208
     21 C         139.7313  137.6255  156.6640 C.ar    1  UNL1       -0.0042
     22 C         140.6147  136.6488  155.9460 C.ar    1  UNL1       -0.0003
     23 C         142.0388  136.4659  156.3802 C.ar    1  UNL1       -0.0000
     24 C         142.5794  137.2596  157.5325 C.ar    1  UNL1       -0.0003
     25 C         141.6959  138.2363  158.2506 C.ar    1  UNL1       -0.0042
@<TRIPOS>BOND
     1    11    12    1
     2    12    13   ar
     3    13    14   ar
     4    14    15   ar
     5    15     1    1
     6     1     2    1
     7     2     3    1
     8     3     4    1
     9     4     5   am
    10     5     6    2
    11     5     7   am
    12     7    17    1
    13    17    18    1
    14    18    19    1
    15    19    20    1
    16    20    21   ar
    17    21    22   ar
    18    22    23   ar
    19    23    24   ar
    20    24    25   ar
    21     4     8    1
    22     8     9    1
    23    15    16   ar
    24    16    12   ar
    25     9     1    1
    26    19    17    1
    27    25    20   ar
    28     7    10    1
@<TRIPOS>MOLECULE
*****
 25 28 0 0 0
SMALL
GASTEIGER

@<TRIPOS>ATOM
      1 C         139.2448  140.1799  160.2501 C.3     1  UNL1        0.0826
      2 C         140.5029  139.4595  160.6348 C.3     1  UNL1        0.0309
      3 C         141.2155  138.6052  159.6286 C.3     1  UNL1        0.0954
      4 N         140.6700  138.4714  158.2378 N.am    1  UNL1       -0.2642
      5 C         141.3827  137.6171  157.2316 C.2     1  UNL1        0.3039
      6 O         140.8372  137.4833  155.8407 O.2     1  UNL1       -0.2526
      7 N         142.6408  136.8967  157.6163 N.am    1  UNL1       -0.2901
      8 C         139.4119  139.1919  157.8531 C.3     1  UNL1        0.0954
      9 C         138.6993  140.0461  158.8592 C.3     1  UNL1        0.0309
     10 H         142.9988  136.9845  158.5292 H       1  UNL1        0.1509
     11 C         137.7505  144.3263  163.1580 C.3     1  UNL1        0.0773
     12 C         137.8453  142.9401  162.5929 C.ar    1  UNL1        0.1809
     13 N         137.0255  141.7574  163.0164 N.ar    1  UNL1       -0.0606
     14 O         137.4500  140.5795  162.1903 O.2     1  UNL1       -0.3374
     15 C         138.5321  141.0342  161.2563 C.ar    1  UNL1        0.2359
     16 N         138.7764  142.4931  161.5051 N.ar    1  UNL1       -0.1949
     17 C         143.3535  136.0424  156.6101 C.3     1  UNL1        0.0774
     18 C         144.0661  135.9017  155.2978 C.3     1  UNL1        0.0259
     19 C         143.8752  134.7035  156.1797 C.3     1  UNL1        0.0420
     20 C         144.0662  133.2388  156.4405 C.ar    1  UNL1       -0.0208
     21 C         143.5655  132.2292  155.4506 C.ar    1  UNL1       -0.0042
     22 C         143.7565  130.7645  155.7113 C.ar    1  UNL1       -0.0003
     23 C         144.4482  130.3093  156.9621 C.ar    1  UNL1       -0.0000
     24 C         144.9489  131.3189  157.9521 C.ar    1  UNL1       -0.0003
     25 C         144.7579  132.7837  157.6912 C.ar    1  UNL1       -0.0042
@<TRIPOS>BOND
     1    11    12    1
     2    12    13   ar
     3    13    14   ar
     4    14    15   ar
     5    15     1    1
     6     1     2    1
     7     2     3    1
     8     3     4    1
     9     4     5   am
    10     5     6    2
    11     5     7   am
    12     7    17    1
    13    17    18    1
    14    18    19    1
    15    19    20    1
    16    20    21   ar
    17    21    22   ar
    18    22    23   ar
    19    23    24   ar
    20    24    25   ar
    21     4     8    1
    22     8     9    1
    23    15    16   ar
    24    16    12   ar
    25     9     1    1
    26    19    17    1
    27    25    20   ar
    28     7    10    1
@<TRIPOS>MOLECULE
*****
 25 28 0 0 0
SMALL
GASTEIGER

@<TRIPOS>ATOM
      1 C         138.6117  139.2494  164.2160 C.3     1  UNL1        0.0826
      2 C         139.4270  138.1972  163.5247 C.3     1  UNL1        0.0309
      3 C         139.5232  138.1861  162.0278 C.3     1  UNL1        0.0954
      4 N         138.8041  139.2272  161.2223 N.am    1  UNL1       -0.2642
      5 C         138.9003  139.2160  159.7254 C.2     1  UNL1        0.3039
      6 O         138.1812  140.2572  158.9198 O.2     1  UNL1       -0.2526
      7 N         139.7157  138.1638  159.0341 N.am    1  UNL1       -0.2901
      8 C         137.9887  140.2794  161.9136 C.3     1  UNL1        0.0954
      9 C         137.8925  140.2905  163.4104 C.3     1  UNL1        0.0309
     10 H         140.1877  137.4805  159.5628 H       1  UNL1        0.1509
     11 C         139.5343  140.3390  169.2996 C.3     1  UNL1        0.0773
     12 C         138.9395  139.7614  168.0495 C.ar    1  UNL1        0.1809
     13 N         137.7950  138.7940  167.9831 N.ar    1  UNL1       -0.0606
     14 O         137.5329  138.4845  166.5390 O.2     1  UNL1       -0.3374
     15 C         138.5154  139.2606  165.7129 C.ar    1  UNL1        0.2359
     16 N         139.3847  140.0497  166.6465 N.ar    1  UNL1       -0.1949
     17 C         139.8119  138.1526  157.5372 C.3     1  UNL1        0.0774
     18 C         139.4975  138.7781  156.2106 C.3     1  UNL1        0.0259
     19 C         140.2930  137.5079  156.2711 C.3     1  UNL1        0.0420
     20 C         141.0301  136.4023  155.5752 C.ar    1  UNL1       -0.0208
     21 C         142.1150  135.6559  156.2934 C.ar    1  UNL1       -0.0042
     22 C         142.8520  134.5503  155.5975 C.ar    1  UNL1       -0.0003
     23 C         142.5042  134.1911  154.1832 C.ar    1  UNL1       -0.0000
     24 C         141.4193  134.9375  153.4650 C.ar    1  UNL1       -0.0003
     25 C         140.6823  136.0432  154.1610 C.ar    1  UNL1       -0.0042
@<TRIPOS>BOND
     1    11    12    1
     2    12    13   ar
     3    13    14   ar
     4    14    15   ar
     5    15     1    1
     6     1     2    1
     7     2     3    1
     8     3     4    1
     9     4     5   am
    10     5     6    2
    11     5     7   am
    12     7    17    1
    13    17    18    1
    14    18    19    1
    15    19    20    1
    16    20    21   ar
    17    21    22   ar
    18    22    23   ar
    19    23    24   ar
    20    24    25   ar
    21     4     8    1
    22     8     9    1
    23    15    16   ar
    24    16    12   ar
    25     9     1    1
    26    19    17    1
    27    25    20   ar
    28     7    10    1
@<TRIPOS>MOLECULE
*****
 25 28 0 0 0
SMALL
GASTEIGER

@<TRIPOS>ATOM
      1 C         139.2321  141.5691  160.0536 C.3     1  UNL1        0.0826
      2 C         140.5291  140.8172  160.1004 C.3     1  UNL1        0.0309
      3 C         140.7783  139.6912  159.1412 C.3     1  UNL1        0.0954
      4 N         139.7304  139.3172  158.1352 N.am    1  UNL1       -0.2642
      5 C         139.9796  138.1912  157.1760 C.2     1  UNL1        0.3039
      6 O         138.9317  137.8171  156.1700 O.2     1  UNL1       -0.2526
      7 N         141.2766  137.4392  157.2228 N.am    1  UNL1       -0.2901
      8 C         138.4334  140.0691  158.0884 C.3     1  UNL1        0.0954
      9 C         138.1842  141.1951  159.0476 C.3     1  UNL1        0.0309
     10 H         141.9644  137.6847  157.8831 H       1  UNL1        0.1509
     11 C         137.9160  144.2675  164.3973 C.3     1  UNL1        0.0773
     12 C         138.3780  143.9355  163.0093 C.ar    1  UNL1        0.1809
     13 N         138.8210  144.9204  161.9682 N.ar    1  UNL1       -0.0606
     14 O         139.1948  144.1538  160.7343 O.2     1  UNL1       -0.3374
     15 C         138.9829  142.6951  161.0128 C.ar    1  UNL1        0.2359
     16 N         138.4781  142.5602  162.4188 N.ar    1  UNL1       -0.1949
     17 C         141.5258  136.3132  156.2636 C.3     1  UNL1        0.0774
     18 C         141.4046  135.7278  154.8879 C.3     1  UNL1        0.0259
     19 C         142.0787  134.9483  155.9779 C.3     1  UNL1        0.0420
     20 C         142.7870  133.7104  156.4423 C.ar    1  UNL1       -0.0208
     21 C         144.0070  133.8243  157.3075 C.ar    1  UNL1       -0.0042
     22 C         144.7153  132.5863  157.7719 C.ar    1  UNL1       -0.0003
     23 C         144.2036  131.2344  157.3711 C.ar    1  UNL1       -0.0000
     24 C         142.9836  131.1205  156.5059 C.ar    1  UNL1       -0.0003
     25 C         142.2753  132.3586  156.0415 C.ar    1  UNL1       -0.0042
@<TRIPOS>BOND
     1    11    12    1
     2    12    13   ar
     3    13    14   ar
     4    14    15   ar
     5    15     1    1
     6     1     2    1
     7     2     3    1
     8     3     4    1
     9     4     5   am
    10     5     6    2
    11     5     7   am
    12     7    17    1
    13    17    18    1
    14    18    19    1
    15    19    20    1
    16    20    21   ar
    17    21    22   ar
    18    22    23   ar
    19    23    24   ar
    20    24    25   ar
    21     4     8    1
    22     8     9    1
    23    15    16   ar
    24    16    12   ar
    25     9     1    1
    26    19    17    1
    27    25    20   ar
    28     7    10    1
