@<TRIPOS>MOLECULE
*****
 26 28 0 0 0
SMALL
GASTEIGER

@<TRIPOS>ATOM
      1 C         139.9739  143.7495  165.6012 C.ar    1  UNL1        0.0729
      2 C         141.1183  143.4828  164.6689 C.ar    1  UNL1        0.0302
      3 C         142.2900  142.6696  165.1332 C.ar    1  UNL1        0.0520
      4 C         142.3173  142.1230  166.5298 C.ar    1  UNL1        0.0486
      5 C         141.1729  142.3897  167.4621 C.ar    1  UNL1        0.1301
      6 N         140.0012  143.2029  166.9978 N.ar    1  UNL1       -0.2342
      7 N         143.4345  142.4028  164.2009 N.pl3   1  UNL1       -0.3027
      8 C         143.5578  143.1793  162.9235 C.3     1  UNL1        0.1231
      9 C         144.7022  142.9126  161.9912 C.3     1  UNL1        0.1636
     10 O         145.7234  141.8694  162.3364 O.3     1  UNL1       -0.3501
     11 C         145.6001  141.0930  163.6139 C.3     1  UNL1        0.1636
     12 C         144.4556  141.3597  164.5461 C.3     1  UNL1        0.1231
     13 N         141.2002  141.8431  168.8587 N.pl3   1  UNL1       -0.3057
     14 H         141.9833  141.3364  169.1738 H       1  UNL1        0.1492
     15 C         140.0344  142.0685  169.7752 C.3     1  UNL1        0.1959
     16 C         139.1051  140.9364  170.0991 C.1     1  UNL1        0.0952
     17 N         138.1759  139.8043  170.4230 N.1     1  UNL1       -0.1941
     18 C         138.8021  144.5628  165.1368 C.3     1  UNL1        0.1097
     19 S         137.6142  143.8838  164.5223 S.3     1  UNL1       -0.0820
     20 C         138.6075  142.5266  159.5170 C.3     1  UNL1        0.0523
     21 C         138.2339  142.4527  160.9678 C.ar    1  UNL1        0.0625
     22 N         138.2059  143.6026  161.9307 N.ar    1  UNL1       -0.2367
     23 C         137.7773  143.0765  163.2685 C.ar    1  UNL1        0.1361
     24 S         137.5403  141.6016  163.1324 S.2     1  UNL1       -0.0650
     25 C         137.8225  141.2161  161.7105 C.ar    1  UNL1        0.0230
     26 C         137.7126  139.8363  161.1328 C.3     1  UNL1        0.0395
@<TRIPOS>BOND
     1    20    21    1
     2    21    22   ar
     3    22    23   ar
     4    23    19    1
     5    19    18    1
     6    18     1    1
     7     1     2   ar
     8     2     3   ar
     9     3     7    1
    10     7     8    1
    11     8     9    1
    12     9    10    1
    13    10    11    1
    14    11    12    1
    15     3     4   ar
    16     4     5   ar
    17     5    13    1
    18    13    15    1
    19    15    16    1
    20    16    17    3
    21     5     6   ar
    22    23    24   ar
    23    24    25   ar
    24    25    26    1
    25    25    21   ar
    26     6     1   ar
    27    12     7    1
    28    13    14    1
@<TRIPOS>MOLECULE
*****
 26 28 0 0 0
SMALL
GASTEIGER

@<TRIPOS>ATOM
      1 C         142.8626  142.7408  164.9529 C.ar    1  UNL1        0.0729
      2 C         142.3495  142.3252  166.2997 C.ar    1  UNL1        0.0302
      3 C         140.9425  142.6556  166.7009 C.ar    1  UNL1        0.0520
      4 C         140.0485  143.4017  165.7552 C.ar    1  UNL1        0.0486
      5 C         140.5616  143.8173  164.4084 C.ar    1  UNL1        0.1301
      6 N         141.9687  143.4868  164.0073 N.ar    1  UNL1       -0.2342
      7 N         140.4293  142.2400  168.0477 N.pl3   1  UNL1       -0.3027
      8 C         139.9167  140.8460  168.2576 C.3     1  UNL1        0.1231
      9 C         139.4035  140.4304  169.6043 C.3     1  UNL1        0.1636
     10 O         139.4029  141.4088  170.7414 O.3     1  UNL1       -0.3501
     11 C         139.9155  142.8028  170.5316 C.3     1  UNL1        0.1636
     12 C         140.4287  143.2184  169.1847 C.3     1  UNL1        0.1231
     13 N         139.6677  144.5634  163.4628 N.pl3   1  UNL1       -0.3057
     14 H         140.0474  145.2403  162.8571 H       1  UNL1        0.1492
     15 C         138.1953  144.2781  163.4399 C.3     1  UNL1        0.1959
     16 C         137.6977  142.9397  162.9806 C.1     1  UNL1        0.0952
     17 N         137.2001  141.6012  162.5212 N.1     1  UNL1       -0.1941
     18 C         144.2697  142.4103  164.5517 C.3     1  UNL1        0.1097
     19 S         144.6456  140.9937  164.2325 S.3     1  UNL1       -0.0820
     20 C         141.0509  138.4343  161.3327 C.3     1  UNL1        0.0523
     21 C         141.9390  138.8399  162.4714 C.ar    1  UNL1        0.0625
     22 N         142.9232  139.9719  162.4621 N.ar    1  UNL1       -0.2367
     23 C         143.5913  140.0163  163.8043 C.ar    1  UNL1        0.1361
     24 S         143.0201  138.9118  164.6432 S.2     1  UNL1       -0.0650
     25 C         141.9989  138.1847  163.8195 C.ar    1  UNL1        0.0230
     26 C         141.1813  137.0090  164.2654 C.3     1  UNL1        0.0395
@<TRIPOS>BOND
     1    20    21    1
     2    21    22   ar
     3    22    23   ar
     4    23    19    1
     5    19    18    1
     6    18     1    1
     7     1     2   ar
     8     2     3   ar
     9     3     7    1
    10     7     8    1
    11     8     9    1
    12     9    10    1
    13    10    11    1
    14    11    12    1
    15     3     4   ar
    16     4     5   ar
    17     5    13    1
    18    13    15    1
    19    15    16    1
    20    16    17    3
    21     5     6   ar
    22    23    24   ar
    23    24    25   ar
    24    25    26    1
    25    25    21   ar
    26     6     1   ar
    27    12     7    1
    28    13    14    1
@<TRIPOS>MOLECULE
*****
 26 28 0 0 0
SMALL
GASTEIGER

@<TRIPOS>ATOM
      1 C         139.9949  139.2466  165.5767 C.ar    1  UNL1        0.0729
      2 C         139.8742  139.8902  166.9262 C.ar    1  UNL1        0.0302
      3 C         141.1074  140.2054  167.7198 C.ar    1  UNL1        0.0520
      4 C         142.4613  139.8771  167.1639 C.ar    1  UNL1        0.0486
      5 C         142.5821  139.2336  165.8144 C.ar    1  UNL1        0.1301
      6 N         141.3489  138.9183  165.0208 N.ar    1  UNL1       -0.2342
      7 N         140.9866  140.8490  169.0694 N.pl3   1  UNL1       -0.3027
      8 C         139.9987  141.9567  169.2864 C.3     1  UNL1        0.1231
      9 C         139.8779  142.6002  170.6359 C.3     1  UNL1        0.1636
     10 O         140.7452  142.1362  171.7685 O.3     1  UNL1       -0.3501
     11 C         141.7331  141.0286  171.5515 C.3     1  UNL1        0.1636
     12 C         141.8538  140.3850  170.2019 C.3     1  UNL1        0.1231
     13 N         143.9360  138.9053  165.2585 N.pl3   1  UNL1       -0.3057
     14 H         144.6046  138.4555  165.8241 H       1  UNL1        0.1492
     15 C         144.2714  139.2623  163.8407 C.3     1  UNL1        0.1959
     16 C         145.1066  140.4738  163.5498 C.1     1  UNL1        0.0952
     17 N         145.9417  141.6854  163.2590 N.1     1  UNL1       -0.1941
     18 C         138.7617  138.9313  164.7831 C.3     1  UNL1        0.1097
     19 S         138.3905  139.7817  163.6045 S.3     1  UNL1       -0.0820
     20 C         138.4213  144.7915  165.2724 C.3     1  UNL1        0.0523
     21 C         138.6101  143.5694  164.4234 C.ar    1  UNL1        0.0625
     22 N         138.2281  142.1680  164.7979 N.ar    1  UNL1       -0.2367
     23 C         138.5959  141.2667  163.6567 C.ar    1  UNL1        0.1361
     24 S         139.2052  142.1110  162.5769 S.2     1  UNL1       -0.0650
     25 C         139.2139  143.5341  163.0507 C.ar    1  UNL1        0.0230
     26 C         139.7350  144.7147  162.2861 C.3     1  UNL1        0.0395
@<TRIPOS>BOND
     1    20    21    1
     2    21    22   ar
     3    22    23   ar
     4    23    19    1
     5    19    18    1
     6    18     1    1
     7     1     2   ar
     8     2     3   ar
     9     3     7    1
    10     7     8    1
    11     8     9    1
    12     9    10    1
    13    10    11    1
    14    11    12    1
    15     3     4   ar
    16     4     5   ar
    17     5    13    1
    18    13    15    1
    19    15    16    1
    20    16    17    3
    21     5     6   ar
    22    23    24   ar
    23    24    25   ar
    24    25    26    1
    25    25    21   ar
    26     6     1   ar
    27    12     7    1
    28    13    14    1
@<TRIPOS>MOLECULE
*****
 26 28 0 0 0
SMALL
GASTEIGER

@<TRIPOS>ATOM
      1 C         143.6752  142.6267  165.1777 C.ar    1  UNL1        0.0729
      2 C         142.7406  141.5041  164.8365 C.ar    1  UNL1        0.0302
      3 C         142.0244  140.7664  165.9286 C.ar    1  UNL1        0.0520
      4 C         142.2428  141.1512  167.3619 C.ar    1  UNL1        0.0486
      5 C         143.1775  142.2737  167.7030 C.ar    1  UNL1        0.1301
      6 N         143.8937  143.0114  166.6109 N.ar    1  UNL1       -0.2342
      7 N         141.0897  139.6438  165.5875 N.pl3   1  UNL1       -0.3027
      8 C         141.6159  138.4045  164.9263 C.3     1  UNL1        0.1231
      9 C         140.6813  137.2820  164.5852 C.3     1  UNL1        0.1636
     10 O         139.2205  137.3987  164.9053 O.3     1  UNL1       -0.3501
     11 C         138.6943  138.6381  165.5665 C.3     1  UNL1        0.1636
     12 C         139.6290  139.7606  165.9076 C.3     1  UNL1        0.1231
     13 N         143.3959  142.6585  169.1363 N.pl3   1  UNL1       -0.3057
     14 H         143.7670  143.5432  169.3574 H       1  UNL1        0.1492
     15 C         143.0489  141.6954  170.2326 C.3     1  UNL1        0.1959
     16 C         141.8274  141.9236  171.0727 C.1     1  UNL1        0.0952
     17 N         140.6058  142.1518  171.9127 N.1     1  UNL1       -0.1941
     18 C         144.3915  143.3645  164.0855 C.3     1  UNL1        0.1097
     19 S         143.8511  144.6704  163.5832 S.3     1  UNL1       -0.0820
     20 C         140.1823  144.6370  159.7858 C.3     1  UNL1        0.0523
     21 C         140.8420  144.6976  161.1316 C.ar    1  UNL1        0.0625
     22 N         142.3158  144.6073  161.3960 N.ar    1  UNL1       -0.2367
     23 C         142.5283  144.7129  162.8771 C.ar    1  UNL1        0.1361
     24 S         141.1859  144.8685  163.5281 S.2     1  UNL1       -0.0650
     25 C         140.1437  144.8590  162.4494 C.ar    1  UNL1        0.0230
     26 C         138.6633  144.9883  162.6526 C.3     1  UNL1        0.0395
@<TRIPOS>BOND
     1    20    21    1
     2    21    22   ar
     3    22    23   ar
     4    23    19    1
     5    19    18    1
     6    18     1    1
     7     1     2   ar
     8     2     3   ar
     9     3     7    1
    10     7     8    1
    11     8     9    1
    12     9    10    1
    13    10    11    1
    14    11    12    1
    15     3     4   ar
    16     4     5   ar
    17     5    13    1
    18    13    15    1
    19    15    16    1
    20    16    17    3
    21     5     6   ar
    22    23    24   ar
    23    24    25   ar
    24    25    26    1
    25    25    21   ar
    26     6     1   ar
    27    12     7    1
    28    13    14    1
@<TRIPOS>MOLECULE
*****
 26 28 0 0 0
SMALL
GASTEIGER

@<TRIPOS>ATOM
      1 C         139.2248  139.8177  164.9028 C.ar    1  UNL1        0.0729
      2 C         140.2307  140.8643  164.5250 C.ar    1  UNL1        0.0302
      3 C         141.0127  141.5724  165.5913 C.ar    1  UNL1        0.0520
      4 C         140.7889  141.2338  167.0353 C.ar    1  UNL1        0.0486
      5 C         139.7830  140.1872  167.4131 C.ar    1  UNL1        0.1301
      6 N         139.0010  139.4792  166.3468 N.ar    1  UNL1       -0.2342
      7 N         142.0187  142.6190  165.2135 N.pl3   1  UNL1       -0.3027
      8 C         141.6195  143.7544  164.3182 C.3     1  UNL1        0.1231
      9 C         142.6253  144.8011  163.9405 C.3     1  UNL1        0.1636
     10 O         144.0305  144.7124  164.4580 O.3     1  UNL1       -0.3501
     11 C         144.4297  143.5770  165.3533 C.3     1  UNL1        0.1636
     12 C         143.4237  142.5303  165.7311 C.3     1  UNL1        0.1231
     13 N         139.5592  139.8487  168.8572 N.pl3   1  UNL1       -0.3057
     14 H         138.6704  139.5546  169.1618 H       1  UNL1        0.1492
     15 C         140.6895  139.9582  169.8371 C.3     1  UNL1        0.1959
     16 C         140.6689  141.0270  170.8894 C.1     1  UNL1        0.0952
     17 N         140.6483  142.0958  171.9417 N.1     1  UNL1       -0.1941
     18 C         138.4427  139.1096  163.8365 C.3     1  UNL1        0.1097
     19 S         139.0085  137.8858  163.1791 S.3     1  UNL1       -0.0820
     20 C         143.9589  137.7998  161.3440 C.3     1  UNL1        0.0523
     21 C         142.4702  137.9645  161.4251 C.ar    1  UNL1        0.0625
     22 N         141.6201  137.7152  162.6357 N.ar    1  UNL1       -0.2367
     23 C         140.1947  138.0040  162.2686 C.ar    1  UNL1        0.1361
     24 S         140.1637  138.4318  160.8312 S.2     1  UNL1       -0.0650
     25 C         141.5700  138.4074  160.3099 C.ar    1  UNL1        0.0230
     26 C         142.0005  138.7633  158.9179 C.3     1  UNL1        0.0395
@<TRIPOS>BOND
     1    20    21    1
     2    21    22   ar
     3    22    23   ar
     4    23    19    1
     5    19    18    1
     6    18     1    1
     7     1     2   ar
     8     2     3   ar
     9     3     7    1
    10     7     8    1
    11     8     9    1
    12     9    10    1
    13    10    11    1
    14    11    12    1
    15     3     4   ar
    16     4     5   ar
    17     5    13    1
    18    13    15    1
    19    15    16    1
    20    16    17    3
    21     5     6   ar
    22    23    24   ar
    23    24    25   ar
    24    25    26    1
    25    25    21   ar
    26     6     1   ar
    27    12     7    1
    28    13    14    1
@<TRIPOS>MOLECULE
*****
 26 28 0 0 0
SMALL
GASTEIGER

@<TRIPOS>ATOM
      1 C         143.8147  142.6632  164.9045 C.ar    1  UNL1        0.0729
      2 C         142.9947  142.2649  166.0956 C.ar    1  UNL1        0.0302
      3 C         142.7237  140.8151  166.3686 C.ar    1  UNL1        0.0520
      4 C         143.2727  139.7636  165.4505 C.ar    1  UNL1        0.0486
      5 C         144.0928  140.1619  164.2593 C.ar    1  UNL1        0.1301
      6 N         144.3637  141.6118  163.9864 N.ar    1  UNL1       -0.2342
      7 N         141.9036  140.4166  167.5598 N.pl3   1  UNL1       -0.3027
      8 C         142.5728  139.8393  168.7718 C.3     1  UNL1        0.1231
      9 C         141.7528  139.4409  169.9630 C.3     1  UNL1        0.1636
     10 O         140.2636  139.6198  169.9421 O.3     1  UNL1       -0.3501
     11 C         139.5945  140.1971  168.7301 C.3     1  UNL1        0.1636
     12 C         140.4145  140.5955  167.5389 C.3     1  UNL1        0.1231
     13 N         144.6418  139.1105  163.3412 N.pl3   1  UNL1       -0.3057
     14 H         145.5052  138.6827  163.5432 H       1  UNL1        0.1492
     15 C         143.8754  138.7109  162.1153 C.3     1  UNL1        0.1959
     16 C         142.5479  138.0259  162.2508 C.1     1  UNL1        0.0952
     17 N         141.2203  137.3409  162.3863 N.1     1  UNL1       -0.1941
     18 C         144.0857  144.1131  164.6314 C.3     1  UNL1        0.1097
     19 S         143.2728  144.8481  163.6074 S.3     1  UNL1       -0.0820
     20 C         138.0766  144.2012  164.2873 C.3     1  UNL1        0.0523
     21 C         139.4513  144.1731  163.6878 C.ar    1  UNL1        0.0625
     22 N         140.7010  144.7077  164.3224 N.ar    1  UNL1       -0.2367
     23 C         141.8397  144.4705  163.3753 C.ar    1  UNL1        0.1361
     24 S         141.2939  143.7893  162.1554 S.2     1  UNL1       -0.0650
     25 C         139.8178  143.6055  162.3485 C.ar    1  UNL1        0.0230
     26 C         138.8739  142.9664  161.3737 C.3     1  UNL1        0.0395
@<TRIPOS>BOND
     1    20    21    1
     2    21    22   ar
     3    22    23   ar
     4    23    19    1
     5    19    18    1
     6    18     1    1
     7     1     2   ar
     8     2     3   ar
     9     3     7    1
    10     7     8    1
    11     8     9    1
    12     9    10    1
    13    10    11    1
    14    11    12    1
    15     3     4   ar
    16     4     5   ar
    17     5    13    1
    18    13    15    1
    19    15    16    1
    20    16    17    3
    21     5     6   ar
    22    23    24   ar
    23    24    25   ar
    24    25    26    1
    25    25    21   ar
    26     6     1   ar
    27    12     7    1
    28    13    14    1
@<TRIPOS>MOLECULE
*****
 26 28 0 0 0
SMALL
GASTEIGER

@<TRIPOS>ATOM
      1 C         139.1373  140.0873  166.2154 C.ar    1  UNL1        0.0729
      2 C         139.2238  141.2049  165.2187 C.ar    1  UNL1        0.0302
      3 C         140.1238  142.3757  165.4811 C.ar    1  UNL1        0.0520
      4 C         140.9374  142.4290  166.7402 C.ar    1  UNL1        0.0486
      5 C         140.8509  141.3114  167.7368 C.ar    1  UNL1        0.1301
      6 N         139.9509  140.1405  167.4744 N.ar    1  UNL1       -0.2342
      7 N         140.2104  143.4934  164.4844 N.pl3   1  UNL1       -0.3027
      8 C         141.5099  144.2127  164.2750 C.3     1  UNL1        0.1231
      9 C         141.5965  145.3303  163.2784 C.3     1  UNL1        0.1636
     10 O         140.3834  145.7288  162.4911 O.3     1  UNL1       -0.3501
     11 C         139.0839  145.0096  162.7005 C.3     1  UNL1        0.1636
     12 C         138.9973  143.8919  163.6972 C.3     1  UNL1        0.1231
     13 N         141.6645  141.3646  168.9959 N.pl3   1  UNL1       -0.3057
     14 H         141.9392  140.5301  169.4401 H       1  UNL1        0.1492
     15 C         142.0595  142.6893  169.5782 C.3     1  UNL1        0.1959
     16 C         141.0061  143.6952  169.9365 C.1     1  UNL1        0.0952
     17 N         139.9526  144.7011  170.2948 N.1     1  UNL1       -0.1941
     18 C         138.2372  138.9163  165.9530 C.3     1  UNL1        0.1097
     19 S         138.7723  137.7001  165.2570 S.3     1  UNL1       -0.0820
     20 C         142.3596  137.8132  161.3841 C.3     1  UNL1        0.0523
     21 C         141.0566  137.8807  162.1241 C.ar    1  UNL1        0.0625
     22 N         140.8671  137.6682  163.5969 N.ar    1  UNL1       -0.2367
     23 C         139.4077  137.8287  163.9043 C.ar    1  UNL1        0.1361
     24 S         138.6953  138.1405  162.6216 S.2     1  UNL1       -0.0650
     25 C         139.7144  138.1726  161.5214 C.ar    1  UNL1        0.0230
     26 C         139.4395  138.4482  160.0729 C.3     1  UNL1        0.0395
@<TRIPOS>BOND
     1    20    21    1
     2    21    22   ar
     3    22    23   ar
     4    23    19    1
     5    19    18    1
     6    18     1    1
     7     1     2   ar
     8     2     3   ar
     9     3     7    1
    10     7     8    1
    11     8     9    1
    12     9    10    1
    13    10    11    1
    14    11    12    1
    15     3     4   ar
    16     4     5   ar
    17     5    13    1
    18    13    15    1
    19    15    16    1
    20    16    17    3
    21     5     6   ar
    22    23    24   ar
    23    24    25   ar
    24    25    26    1
    25    25    21   ar
    26     6     1   ar
    27    12     7    1
    28    13    14    1
@<TRIPOS>MOLECULE
*****
 26 28 0 0 0
SMALL
GASTEIGER

@<TRIPOS>ATOM
      1 C         140.5516  143.2035  165.1779 C.ar    1  UNL1        0.0729
      2 C         140.5505  142.7406  166.6047 C.ar    1  UNL1        0.0302
      3 C         141.8316  142.3075  167.2537 C.ar    1  UNL1        0.0520
      4 C         143.1138  142.3374  166.4759 C.ar    1  UNL1        0.0486
      5 C         143.1150  142.8003  165.0491 C.ar    1  UNL1        0.1301
      6 N         141.8339  143.2333  164.4001 N.ar    1  UNL1       -0.2342
      7 N         141.8305  141.8446  168.6805 N.pl3   1  UNL1       -0.3027
      8 C         142.7859  140.7762  169.1230 C.3     1  UNL1        0.1231
      9 C         142.7848  140.3133  170.5498 C.3     1  UNL1        0.1636
     10 O         141.8284  140.9187  171.5341 O.3     1  UNL1       -0.3501
     11 C         140.8730  141.9871  171.0915 C.3     1  UNL1        0.1636
     12 C         140.8741  142.4500  169.6647 C.3     1  UNL1        0.1231
     13 N         144.3972  142.8301  164.2713 N.pl3   1  UNL1       -0.3057
     14 H         144.6685  143.6512  163.8007 H       1  UNL1        0.1492
     15 C         145.2662  141.6090  164.2105 C.3     1  UNL1        0.1959
     16 C         144.7276  140.3332  163.6340 C.1     1  UNL1        0.0952
     17 N         144.1891  139.0574  163.0575 N.1     1  UNL1       -0.1941
     18 C         139.2705  143.6366  164.5289 C.3     1  UNL1        0.1097
     19 S         138.0726  142.7343  164.5581 S.3     1  UNL1       -0.0820
     20 C         138.8794  137.5460  165.1163 C.3     1  UNL1        0.0523
     21 C         138.5971  138.8887  164.5102 C.ar    1  UNL1        0.0625
     22 N         138.5340  140.1934  165.2479 N.ar    1  UNL1       -0.2367
     23 C         138.2262  141.2735  164.2536 C.ar    1  UNL1        0.1361
     24 S         138.0991  140.6366  162.9016 S.2     1  UNL1       -0.0650
     25 C         138.3283  139.1627  163.0601 C.ar    1  UNL1        0.0230
     26 C         138.2946  138.1420  161.9615 C.3     1  UNL1        0.0395
@<TRIPOS>BOND
     1    20    21    1
     2    21    22   ar
     3    22    23   ar
     4    23    19    1
     5    19    18    1
     6    18     1    1
     7     1     2   ar
     8     2     3   ar
     9     3     7    1
    10     7     8    1
    11     8     9    1
    12     9    10    1
    13    10    11    1
    14    11    12    1
    15     3     4   ar
    16     4     5   ar
    17     5    13    1
    18    13    15    1
    19    15    16    1
    20    16    17    3
    21     5     6   ar
    22    23    24   ar
    23    24    25   ar
    24    25    26    1
    25    25    21   ar
    26     6     1   ar
    27    12     7    1
    28    13    14    1
@<TRIPOS>MOLECULE
*****
 26 28 0 0 0
SMALL
GASTEIGER

@<TRIPOS>ATOM
      1 C         143.6244  142.2420  165.0090 C.ar    1  UNL1        0.0729
      2 C         142.6340  142.9759  164.1543 C.ar    1  UNL1        0.0302
      3 C         141.2786  143.3150  164.6999 C.ar    1  UNL1        0.0520
      4 C         140.9135  142.9203  166.1002 C.ar    1  UNL1        0.0486
      5 C         141.9039  142.1864  166.9550 C.ar    1  UNL1        0.1301
      6 N         143.2593  141.8473  166.4094 N.ar    1  UNL1       -0.2342
      7 N         140.2882  144.0489  163.8452 N.pl3   1  UNL1       -0.3027
      8 C         140.7468  145.1694  162.9597 C.3     1  UNL1        0.1231
      9 C         139.7564  145.9033  162.1050 C.3     1  UNL1        0.1636
     10 O         138.3074  145.5167  162.1358 O.3     1  UNL1       -0.3501
     11 C         137.8488  144.3962  163.0213 C.3     1  UNL1        0.1636
     12 C         138.8392  143.6623  163.8760 C.3     1  UNL1        0.1231
     13 N         141.5388  141.7917  168.3553 N.pl3   1  UNL1       -0.3057
     14 H         141.2590  140.8680  168.5492 H       1  UNL1        0.1492
     15 C         141.6000  142.8044  169.4601 C.3     1  UNL1        0.1959
     16 C         140.3991  143.0424  170.3268 C.1     1  UNL1        0.0952
     17 N         139.1982  143.2803  171.1935 N.1     1  UNL1       -0.1941
     18 C         144.9799  141.9029  164.4635 C.3     1  UNL1        0.1097
     19 S         145.2544  140.5241  163.9406 S.3     1  UNL1       -0.0820
     20 C         141.7920  138.2310  160.6795 C.3     1  UNL1        0.0523
     21 C         142.5367  138.6279  161.9196 C.ar    1  UNL1        0.0625
     22 N         143.6953  139.5784  161.9861 N.ar    1  UNL1       -0.2367
     23 C         144.1282  139.6818  163.4186 C.ar    1  UNL1        0.1361
     24 S         143.2374  138.7953  164.2373 S.2     1  UNL1       -0.0650
     25 C         142.2538  138.1439  163.3110 C.ar    1  UNL1        0.0230
     26 C         141.1764  137.1782  163.7064 C.3     1  UNL1        0.0395
@<TRIPOS>BOND
     1    20    21    1
     2    21    22   ar
     3    22    23   ar
     4    23    19    1
     5    19    18    1
     6    18     1    1
     7     1     2   ar
     8     2     3   ar
     9     3     7    1
    10     7     8    1
    11     8     9    1
    12     9    10    1
    13    10    11    1
    14    11    12    1
    15     3     4   ar
    16     4     5   ar
    17     5    13    1
    18    13    15    1
    19    15    16    1
    20    16    17    3
    21     5     6   ar
    22    23    24   ar
    23    24    25   ar
    24    25    26    1
    25    25    21   ar
    26     6     1   ar
    27    12     7    1
    28    13    14    1
