@<TRIPOS>MOLECULE
*****
 40 42 0 0 0
SMALL
GASTEIGER

@<TRIPOS>ATOM
      1 C         139.4869  139.3653  160.4864 C.ar    1  UNL1        0.0597
      2 C         139.3706  138.4870  161.6968 C.ar    1  UNL1        0.0423
      3 C         138.6609  138.9862  162.9203 C.ar    1  UNL1        0.1504
      4 C         138.0674  140.3638  162.9334 C.ar    1  UNL1        0.0744
      5 C         138.1837  141.2421  161.7231 C.ar    1  UNL1        0.1416
      6 C         138.8935  140.7429  160.4996 C.ar    1  UNL1        0.0416
      7 N         141.6579  139.1484  159.0759 N.am    1  UNL1       -0.2644
      8 C         140.1967  138.8661  159.2629 C.2     1  UNL1        0.2508
      9 O         139.4451  138.0846  158.2263 O.2     1  UNL1       -0.2698
     10 H         142.1512  139.6613  159.7562 H       1  UNL1        0.1566
     11 N         143.4969  137.1952  156.2707 N.ar    1  UNL1       -0.2357
     12 C         143.4230  138.5669  155.6682 C.ar    1  UNL1        0.0988
     13 C         142.7251  139.4656  156.6457 C.ar    1  UNL1        0.0565
     14 C         142.3677  138.6492  157.8523 C.ar    1  UNL1        0.1557
     15 N         142.8447  137.2461  157.6205 N.ar    1  UNL1       -0.1534
     16 C         144.1145  135.9851  155.6350 C.3     1  UNL1        0.2423
     17 P         143.3665  134.6851  155.6131 P.3     1  UNL1        0.3677
     18 O         142.6186  133.3851  155.5912 O.2     1  UNL1       -0.2557
     19 O         144.1275  134.2269  156.8218 O.3     1  UNL1       -0.2928
     20 C         145.3446  132.2159  157.9283 C.3     1  UNL1        0.0352
     21 C         144.1742  132.7687  157.1703 C.3     1  UNL1        0.1515
     22 O         142.6056  135.1433  154.4043 O.3     1  UNL1       -0.2928
     23 C         141.1056  135.1276  154.4119 C.3     1  UNL1        0.1515
     24 C         140.3441  136.3798  154.7313 C.3     1  UNL1        0.0352
     25 O         138.5445  138.1079  164.1307 O.3     1  UNL1       -0.4347
     26 C         138.8039  138.6735  165.4955 C.ar    1  UNL1        0.2494
     27 C         137.8230  138.4351  166.6051 C.ar    1  UNL1        0.1569
     28 N         138.0824  139.0008  167.9699 N.ar    1  UNL1       -0.2328
     29 C         139.3227  139.8048  168.2252 C.ar    1  UNL1        0.1538
     30 C         140.3036  140.0432  167.1157 C.ar    1  UNL1        0.1258
     31 N         140.0442  139.4775  165.7509 N.ar    1  UNL1       -0.2068
     32 C         139.5821  140.3705  169.5900 C.2     1  UNL1        0.2652
     33 O         138.9033  139.7776  170.7890 O.2     1  UNL1       -0.2684
     34 N         140.5204  141.5291  169.7558 N.am    1  UNL1       -0.2979
     35 C         140.7798  142.0947  171.1206 C.3     1  UNL1        0.1110
     36 H         140.9659  141.9182  168.9688 H       1  UNL1        0.1498
     37 O         137.5903  142.6197  161.7363 O.3     1  UNL1       -0.4791
     38 C         138.2413  143.7091  162.5358 C.3     1  UNL1        0.1661
     39 C         139.4473  144.4182  161.9948 C.3     1  UNL1        0.0472
     40 C         137.6862  144.0895  163.8765 C.3     1  UNL1        0.0472
@<TRIPOS>BOND
     1    20    21    1
     2    21    19    1
     3    19    17    1
     4    17    18    2
     5    17    16    1
     6    16    11    1
     7    11    12   ar
     8    12    13   ar
     9    13    14   ar
    10    14     7    1
    11     7     8   am
    12     8     9    2
    13     8     1    1
    14     1     2   ar
    15     2     3   ar
    16     3    25    1
    17    25    26    1
    18    26    27   ar
    19    27    28   ar
    20    28    29   ar
    21    29    32    1
    22    32    33    2
    23    32    34   am
    24    34    35    1
    25    29    30   ar
    26    30    31   ar
    27     3     4   ar
    28     4     5   ar
    29     5    37    1
    30    37    38    1
    31    38    39    1
    32    38    40    1
    33     5     6   ar
    34    14    15   ar
    35    17    22    1
    36    22    23    1
    37    23    24    1
    38    15    11   ar
    39     6     1   ar
    40    31    26   ar
    41     7    10    1
    42    34    36    1
@<TRIPOS>MOLECULE
*****
 40 42 0 0 0
SMALL
GASTEIGER

@<TRIPOS>ATOM
      1 C         139.1023  140.5345  160.5319 C.ar    1  UNL1        0.0597
      2 C         138.9782  139.5197  161.6295 C.ar    1  UNL1        0.0423
      3 C         138.4337  139.9247  162.9672 C.ar    1  UNL1        0.1504
      4 C         138.0134  141.3444  163.2073 C.ar    1  UNL1        0.0744
      5 C         138.1375  142.3592  162.1097 C.ar    1  UNL1        0.1416
      6 C         138.6820  141.9542  160.7720 C.ar    1  UNL1        0.0416
      7 N         138.7469  139.4845  158.1821 N.am    1  UNL1       -0.2644
      8 C         139.6468  140.1295  159.1941 C.2     1  UNL1        0.2508
      9 O         141.0912  140.3697  158.8683 O.2     1  UNL1       -0.2698
     10 H         137.7989  139.3269  158.3960 H       1  UNL1        0.1566
     11 N         140.2621  137.7667  155.0486 N.ar    1  UNL1       -0.2357
     12 C         139.9963  139.1463  154.5228 C.ar    1  UNL1        0.0988
     13 C         139.3963  139.9577  155.6327 C.ar    1  UNL1        0.0565
     14 C         139.2914  139.0796  156.8443 C.ar    1  UNL1        0.1557
     15 N         139.8264  137.7256  156.4833 N.ar    1  UNL1       -0.1534
     16 C         140.8588  136.6284  154.2754 C.3     1  UNL1        0.2423
     17 P         142.0088  135.8539  154.8479 P.3     1  UNL1        0.3677
     18 O         143.1587  135.0795  155.4205 O.2     1  UNL1       -0.2557
     19 O         142.9258  137.0070  154.5660 O.3     1  UNL1       -0.2928
     20 C         143.5001  138.9525  156.1893 C.3     1  UNL1        0.0352
     21 C         143.7759  137.5750  155.6637 C.3     1  UNL1        0.1515
     22 O         141.0917  134.7008  155.1298 O.3     1  UNL1       -0.2928
     23 C         141.6607  133.3637  155.5018 C.3     1  UNL1        0.1515
     24 C         141.0707  132.1109  154.9252 C.3     1  UNL1        0.0352
     25 O         138.3096  138.9099  164.0649 O.3     1  UNL1       -0.4347
     26 C         138.7216  139.2634  165.4632 C.ar    1  UNL1        0.2494
     27 C         137.8818  138.8246  166.6261 C.ar    1  UNL1        0.1569
     28 N         138.2938  139.1782  168.0244 N.ar    1  UNL1       -0.2328
     29 C         139.5456  139.9705  168.2598 C.ar    1  UNL1        0.1538
     30 C         140.3853  140.4093  167.0969 C.ar    1  UNL1        0.1258
     31 N         139.9733  140.0558  165.6986 N.ar    1  UNL1       -0.2068
     32 C         139.9576  140.3241  169.6581 C.2     1  UNL1        0.2652
     33 O         139.2723  139.6810  170.8272 O.2     1  UNL1       -0.2684
     34 N         141.0549  141.3208  169.8874 N.am    1  UNL1       -0.2979
     35 C         141.4669  141.6743  171.2857 C.3     1  UNL1        0.1110
     36 H         141.5047  141.7429  169.1201 H       1  UNL1        0.1498
     37 O         137.7172  143.7789  162.3498 O.3     1  UNL1       -0.4791
     38 C         138.6576  144.7365  163.0195 C.3     1  UNL1        0.1661
     39 C         139.4957  145.6664  162.1931 C.3     1  UNL1        0.0472
     40 C         138.7601  144.7643  164.5158 C.3     1  UNL1        0.0472
@<TRIPOS>BOND
     1    20    21    1
     2    21    19    1
     3    19    17    1
     4    17    18    2
     5    17    16    1
     6    16    11    1
     7    11    12   ar
     8    12    13   ar
     9    13    14   ar
    10    14     7    1
    11     7     8   am
    12     8     9    2
    13     8     1    1
    14     1     2   ar
    15     2     3   ar
    16     3    25    1
    17    25    26    1
    18    26    27   ar
    19    27    28   ar
    20    28    29   ar
    21    29    32    1
    22    32    33    2
    23    32    34   am
    24    34    35    1
    25    29    30   ar
    26    30    31   ar
    27     3     4   ar
    28     4     5   ar
    29     5    37    1
    30    37    38    1
    31    38    39    1
    32    38    40    1
    33     5     6   ar
    34    14    15   ar
    35    17    22    1
    36    22    23    1
    37    23    24    1
    38    15    11   ar
    39     6     1   ar
    40    31    26   ar
    41     7    10    1
    42    34    36    1
@<TRIPOS>MOLECULE
*****
 40 42 0 0 0
SMALL
GASTEIGER

@<TRIPOS>ATOM
      1 C         144.1815  142.1878  158.4270 C.ar    1  UNL1        0.0597
      2 C         143.3548  141.1823  157.6818 C.ar    1  UNL1        0.0423
      3 C         143.9092  140.5147  156.4583 C.ar    1  UNL1        0.1504
      4 C         145.2901  140.8526  155.9800 C.ar    1  UNL1        0.0744
      5 C         146.1168  141.8582  156.7253 C.ar    1  UNL1        0.1416
      6 C         145.5625  142.5258  157.9488 C.ar    1  UNL1        0.0416
      7 N         143.9613  142.3225  161.0122 N.am    1  UNL1       -0.2644
      8 C         143.6272  142.8555  159.6506 C.2     1  UNL1        0.2508
      9 O         142.7388  144.0562  159.5124 O.2     1  UNL1       -0.2698
     10 H         144.5444  141.5344  161.1029 H       1  UNL1        0.1566
     11 N         141.9078  143.6481  164.0275 N.ar    1  UNL1       -0.2357
     12 C         143.2004  144.3871  164.2098 C.ar    1  UNL1        0.0988
     13 C         144.1270  143.9804  163.1024 C.ar    1  UNL1        0.0565
     14 C         143.4070  142.9902  162.2358 C.ar    1  UNL1        0.1557
     15 N         142.0355  142.7848  162.8075 N.ar    1  UNL1       -0.1534
     16 C         140.6997  143.7540  164.9101 C.3     1  UNL1        0.2423
     17 P         139.3257  143.7031  164.3103 P.3     1  UNL1        0.3677
     18 O         137.9518  143.6522  163.7105 O.2     1  UNL1       -0.2557
     19 O         139.5244  145.0756  163.7387 O.3     1  UNL1       -0.2928
     20 C         140.2174  145.7668  161.3320 C.3     1  UNL1        0.0352
     21 C         139.1585  145.3535  162.3108 C.3     1  UNL1        0.1515
     22 O         139.1271  142.3306  164.8820 O.3     1  UNL1       -0.2928
     23 C         138.9299  141.1584  163.9670 C.3     1  UNL1        0.1515
     24 C         138.6702  139.7961  164.5387 C.3     1  UNL1        0.0352
     25 O         143.0825  139.5090  155.7129 O.3     1  UNL1       -0.4347
     26 C         143.2056  138.0495  156.0363 C.ar    1  UNL1        0.2494
     27 C         142.6925  137.5253  157.3448 C.ar    1  UNL1        0.1569
     28 N         142.8156  136.0658  157.6682 N.ar    1  UNL1       -0.2328
     29 C         143.4517  135.1304  156.6830 C.ar    1  UNL1        0.1538
     30 C         143.9647  135.6545  155.3746 C.ar    1  UNL1        0.1258
     31 N         143.8416  137.1141  155.0512 N.ar    1  UNL1       -0.2068
     32 C         143.5748  133.6708  157.0064 C.2     1  UNL1        0.2652
     33 O         142.3927  132.7630  156.8378 O.2     1  UNL1       -0.2684
     34 N         144.8801  133.1191  157.4984 N.am    1  UNL1       -0.2979
     35 C         145.0032  131.6596  157.8217 C.3     1  UNL1        0.1110
     36 H         145.6559  133.7150  157.6090 H       1  UNL1        0.1498
     37 O         147.4977  142.1961  156.2470 O.3     1  UNL1       -0.4791
     38 C         147.7129  142.6426  154.8313 C.3     1  UNL1        0.1661
     39 C         148.7236  141.9448  153.9702 C.3     1  UNL1        0.0472
     40 C         146.9172  143.7868  154.2766 C.3     1  UNL1        0.0472
@<TRIPOS>BOND
     1    20    21    1
     2    21    19    1
     3    19    17    1
     4    17    18    2
     5    17    16    1
     6    16    11    1
     7    11    12   ar
     8    12    13   ar
     9    13    14   ar
    10    14     7    1
    11     7     8   am
    12     8     9    2
    13     8     1    1
    14     1     2   ar
    15     2     3   ar
    16     3    25    1
    17    25    26    1
    18    26    27   ar
    19    27    28   ar
    20    28    29   ar
    21    29    32    1
    22    32    33    2
    23    32    34   am
    24    34    35    1
    25    29    30   ar
    26    30    31   ar
    27     3     4   ar
    28     4     5   ar
    29     5    37    1
    30    37    38    1
    31    38    39    1
    32    38    40    1
    33     5     6   ar
    34    14    15   ar
    35    17    22    1
    36    22    23    1
    37    23    24    1
    38    15    11   ar
    39     6     1   ar
    40    31    26   ar
    41     7    10    1
    42    34    36    1
@<TRIPOS>MOLECULE
*****
 40 42 0 0 0
SMALL
GASTEIGER

@<TRIPOS>ATOM
      1 C         141.4723  137.8788  157.5836 C.ar    1  UNL1        0.0597
      2 C         142.4207  136.8933  156.9675 C.ar    1  UNL1        0.0423
      3 C         141.9529  135.9915  155.8640 C.ar    1  UNL1        0.1504
      4 C         140.5368  136.0750  155.3765 C.ar    1  UNL1        0.0744
      5 C         139.5885  137.0605  155.9925 C.ar    1  UNL1        0.1416
      6 C         140.0562  137.9623  157.0960 C.ar    1  UNL1        0.0416
      7 N         143.3806  139.1925  158.7595 N.am    1  UNL1       -0.2644
      8 C         141.9401  138.7807  158.6871 C.2     1  UNL1        0.2508
      9 O         140.9672  139.2709  159.7183 O.2     1  UNL1       -0.2698
     10 H         144.0191  138.8707  158.0827 H       1  UNL1        0.1566
     11 N         144.6365  140.8901  162.0163 N.ar    1  UNL1       -0.2357
     12 C         144.4997  142.0746  161.1061 C.ar    1  UNL1        0.0988
     13 C         144.0126  141.5828  159.7753 C.ar    1  UNL1        0.0565
     14 C         143.8483  140.0944  159.8631 C.ar    1  UNL1        0.1557
     15 N         144.2339  139.6663  161.2480 N.ar    1  UNL1       -0.1534
     16 C         145.0952  140.9236  163.4439 C.3     1  UNL1        0.2423
     17 P         144.1787  141.4373  164.5145 P.3     1  UNL1        0.3677
     18 O         143.2622  141.9512  165.5850 O.2     1  UNL1       -0.2557
     19 O         143.4600  140.1208  164.5311 O.3     1  UNL1       -0.2928
     20 C         143.5440  138.2938  166.3764 C.3     1  UNL1        0.0352
     21 C         144.1162  138.9158  165.1371 C.3     1  UNL1        0.1515
     22 O         144.8974  142.7539  164.4978 O.3     1  UNL1       -0.2928
     23 C         144.1308  144.0293  164.6869 C.3     1  UNL1        0.1515
     24 C         143.7261  144.8449  163.4949 C.3     1  UNL1        0.0352
     25 O         142.9013  135.0060  155.2480 O.3     1  UNL1       -0.4347
     26 C         143.0463  133.6348  155.8385 C.ar    1  UNL1        0.2494
     27 C         144.0678  133.3828  156.9077 C.ar    1  UNL1        0.1569
     28 N         144.2128  132.0116  157.4982 N.ar    1  UNL1       -0.2328
     29 C         143.3362  130.8923  157.0196 C.ar    1  UNL1        0.1538
     30 C         142.3148  131.1443  155.9505 C.ar    1  UNL1        0.1258
     31 N         142.1698  132.5155  155.3599 N.ar    1  UNL1       -0.2068
     32 C         143.4812  129.5211  157.6102 C.2     1  UNL1        0.2652
     33 O         143.7768  128.3493  156.7217 O.2     1  UNL1       -0.2684
     34 N         143.3305  129.3217  159.0892 N.am    1  UNL1       -0.2979
     35 C         143.4754  127.9505  159.6798 C.3     1  UNL1        0.1110
     36 H         143.1364  130.0908  159.6724 H       1  UNL1        0.1498
     37 O         138.1724  137.1440  155.5050 O.3     1  UNL1       -0.4791
     38 C         137.8531  137.9113  154.2563 C.3     1  UNL1        0.1661
     39 C         136.9552  137.3104  153.2158 C.3     1  UNL1        0.0472
     40 C         138.4317  139.2795  154.0481 C.3     1  UNL1        0.0472
@<TRIPOS>BOND
     1    20    21    1
     2    21    19    1
     3    19    17    1
     4    17    18    2
     5    17    16    1
     6    16    11    1
     7    11    12   ar
     8    12    13   ar
     9    13    14   ar
    10    14     7    1
    11     7     8   am
    12     8     9    2
    13     8     1    1
    14     1     2   ar
    15     2     3   ar
    16     3    25    1
    17    25    26    1
    18    26    27   ar
    19    27    28   ar
    20    28    29   ar
    21    29    32    1
    22    32    33    2
    23    32    34   am
    24    34    35    1
    25    29    30   ar
    26    30    31   ar
    27     3     4   ar
    28     4     5   ar
    29     5    37    1
    30    37    38    1
    31    38    39    1
    32    38    40    1
    33     5     6   ar
    34    14    15   ar
    35    17    22    1
    36    22    23    1
    37    23    24    1
    38    15    11   ar
    39     6     1   ar
    40    31    26   ar
    41     7    10    1
    42    34    36    1
@<TRIPOS>MOLECULE
*****
 40 42 0 0 0
SMALL
GASTEIGER

@<TRIPOS>ATOM
      1 C         144.1623  142.0965  158.0148 C.ar    1  UNL1        0.0597
      2 C         143.2991  141.0631  157.3538 C.ar    1  UNL1        0.0423
      3 C         143.8242  140.2837  156.1848 C.ar    1  UNL1        0.1504
      4 C         145.2125  140.5376  155.6767 C.ar    1  UNL1        0.0744
      5 C         146.0757  141.5711  156.3377 C.ar    1  UNL1        0.1416
      6 C         145.5506  142.3505  157.5067 C.ar    1  UNL1        0.0416
      7 N         143.8782  142.3863  160.5810 N.am    1  UNL1       -0.2644
      8 C         143.6372  142.8761  159.1838 C.2     1  UNL1        0.2508
      9 O         142.8711  144.1453  158.9557 O.2     1  UNL1       -0.2698
     10 H         144.3810  141.5532  160.7307 H       1  UNL1        0.1566
     11 N         141.8965  143.9910  163.5073 N.ar    1  UNL1       -0.2357
     12 C         143.1937  144.7397  163.5908 C.ar    1  UNL1        0.0988
     13 C         144.0939  144.2296  162.5046 C.ar    1  UNL1        0.0565
     14 C         143.3531  143.1658  161.7501 C.ar    1  UNL1        0.1557
     15 N         141.9950  143.0183  162.3697 N.ar    1  UNL1       -0.1534
     16 C         140.7093  144.1816  164.4040 C.3     1  UNL1        0.2423
     17 P         139.3627  144.4771  163.8131 P.3     1  UNL1        0.3677
     18 O         138.0161  144.7727  163.2221 O.2     1  UNL1       -0.2557
     19 O         138.8058  143.2473  164.4668 O.3     1  UNL1       -0.2928
     20 C         138.4176  140.6817  164.3362 C.3     1  UNL1        0.0352
     21 C         138.5654  142.0095  163.6543 C.3     1  UNL1        0.1515
     22 O         139.9196  145.7070  163.1593 O.3     1  UNL1       -0.2928
     23 C         139.4845  146.0823  161.7738 C.3     1  UNL1        0.1515
     24 C         140.2465  145.5757  160.5852 C.3     1  UNL1        0.0352
     25 O         142.9610  139.2502  155.5237 O.3     1  UNL1       -0.4347
     26 C         143.1112  137.8030  155.8884 C.ar    1  UNL1        0.2494
     27 C         142.8830  137.3584  157.3028 C.ar    1  UNL1        0.1569
     28 N         143.0331  135.9112  157.6675 N.ar    1  UNL1       -0.2328
     29 C         143.4114  134.9085  156.6179 C.ar    1  UNL1        0.1538
     30 C         143.6396  135.3532  155.2036 C.ar    1  UNL1        0.1258
     31 N         143.4895  136.8004  154.8389 N.ar    1  UNL1       -0.2068
     32 C         143.5615  133.4613  156.9826 C.2     1  UNL1        0.2652
     33 O         142.4212  132.5112  156.7662 O.2     1  UNL1       -0.2684
     34 N         144.8520  132.9643  157.5637 N.am    1  UNL1       -0.2979
     35 C         145.0021  131.5171  157.9284 C.3     1  UNL1        0.1110
     36 H         145.6004  133.5879  157.7057 H       1  UNL1        0.1498
     37 O         147.4640  141.8250  155.8296 O.3     1  UNL1       -0.4791
     38 C         147.6663  142.4875  154.4992 C.3     1  UNL1        0.1661
     39 C         148.4920  141.8138  153.4436 C.3     1  UNL1        0.0472
     40 C         147.0429  143.8239  154.2243 C.3     1  UNL1        0.0472
@<TRIPOS>BOND
     1    20    21    1
     2    21    19    1
     3    19    17    1
     4    17    18    2
     5    17    16    1
     6    16    11    1
     7    11    12   ar
     8    12    13   ar
     9    13    14   ar
    10    14     7    1
    11     7     8   am
    12     8     9    2
    13     8     1    1
    14     1     2   ar
    15     2     3   ar
    16     3    25    1
    17    25    26    1
    18    26    27   ar
    19    27    28   ar
    20    28    29   ar
    21    29    32    1
    22    32    33    2
    23    32    34   am
    24    34    35    1
    25    29    30   ar
    26    30    31   ar
    27     3     4   ar
    28     4     5   ar
    29     5    37    1
    30    37    38    1
    31    38    39    1
    32    38    40    1
    33     5     6   ar
    34    14    15   ar
    35    17    22    1
    36    22    23    1
    37    23    24    1
    38    15    11   ar
    39     6     1   ar
    40    31    26   ar
    41     7    10    1
    42    34    36    1
@<TRIPOS>MOLECULE
*****
 40 42 0 0 0
SMALL
GASTEIGER

@<TRIPOS>ATOM
      1 C         138.1161  142.0329  158.0908 C.ar    1  UNL1        0.0597
      2 C         137.1463  141.2442  157.2617 C.ar    1  UNL1        0.0423
      3 C         137.0120  141.5254  155.7944 C.ar    1  UNL1        0.1504
      4 C         137.8475  142.5953  155.1563 C.ar    1  UNL1        0.0744
      5 C         138.8173  143.3840  155.9854 C.ar    1  UNL1        0.1416
      6 C         138.9516  143.1028  157.4526 C.ar    1  UNL1        0.0416
      7 N         138.2958  142.8863  160.5381 N.am    1  UNL1       -0.2644
      8 C         138.2504  141.7517  159.5581 C.2     1  UNL1        0.2508
      9 O         138.3394  140.3358  160.0453 O.2     1  UNL1       -0.2698
     10 H         138.2374  143.8156  160.2183 H       1  UNL1        0.1566
     11 N         139.1356  141.6325  164.1142 N.ar    1  UNL1       -0.2357
     12 C         138.1381  142.7123  164.4125 C.ar    1  UNL1        0.0988
     13 C         137.7021  143.3134  163.1091 C.ar    1  UNL1        0.0565
     14 C         138.4301  142.6051  162.0054 C.ar    1  UNL1        0.1557
     15 N         139.3161  141.5662  162.6266 N.ar    1  UNL1       -0.1534
     16 C         139.8306  140.7703  165.1258 C.3     1  UNL1        0.2423
     17 P         139.0277  139.9130  166.0589 P.3     1  UNL1        0.3677
     18 O         138.2248  139.0558  166.9919 O.2     1  UNL1       -0.2557
     19 O         139.6904  140.5703  167.2331 O.3     1  UNL1       -0.2928
     20 C         139.3688  140.9714  169.7798 C.3     1  UNL1        0.0352
     21 C         139.4729  140.0310  168.6158 C.3     1  UNL1        0.1515
     22 O         138.3650  139.2558  164.8846 O.3     1  UNL1       -0.2928
     23 C         139.0336  138.1044  164.1937 C.3     1  UNL1        0.1515
     24 C         138.7825  137.8564  162.7358 C.3     1  UNL1        0.0352
     25 O         136.0421  140.7368  154.9653 O.3     1  UNL1       -0.4347
     26 C         134.6743  140.4307  155.4995 C.ar    1  UNL1        0.2494
     27 C         133.5601  141.4187  155.3189 C.ar    1  UNL1        0.1569
     28 N         132.1923  141.1126  155.8532 N.ar    1  UNL1       -0.2328
     29 C         131.9387  139.8185  156.5681 C.ar    1  UNL1        0.1538
     30 C         133.0528  138.8305  156.7487 C.ar    1  UNL1        0.1258
     31 N         134.4206  139.1366  156.2144 N.ar    1  UNL1       -0.2068
     32 C         130.5709  139.5124  157.1023 C.2     1  UNL1        0.2652
     33 O         129.3601  139.7687  156.2550 O.2     1  UNL1       -0.2684
     34 N         130.4140  138.9499  158.4841 N.am    1  UNL1       -0.2979
     35 C         129.0462  138.6437  159.0183 C.3     1  UNL1        0.1110
     36 H         131.2088  138.7816  159.0402 H       1  UNL1        0.1498
     37 O         139.6528  144.4539  155.3472 O.3     1  UNL1       -0.4791
     38 C         140.3244  145.4894  156.1996 C.3     1  UNL1        0.1661
     39 C         141.6835  145.2210  156.7747 C.3     1  UNL1        0.0472
     40 C         139.6368  146.7934  156.4770 C.3     1  UNL1        0.0472
@<TRIPOS>BOND
     1    20    21    1
     2    21    19    1
     3    19    17    1
     4    17    18    2
     5    17    16    1
     6    16    11    1
     7    11    12   ar
     8    12    13   ar
     9    13    14   ar
    10    14     7    1
    11     7     8   am
    12     8     9    2
    13     8     1    1
    14     1     2   ar
    15     2     3   ar
    16     3    25    1
    17    25    26    1
    18    26    27   ar
    19    27    28   ar
    20    28    29   ar
    21    29    32    1
    22    32    33    2
    23    32    34   am
    24    34    35    1
    25    29    30   ar
    26    30    31   ar
    27     3     4   ar
    28     4     5   ar
    29     5    37    1
    30    37    38    1
    31    38    39    1
    32    38    40    1
    33     5     6   ar
    34    14    15   ar
    35    17    22    1
    36    22    23    1
    37    23    24    1
    38    15    11   ar
    39     6     1   ar
    40    31    26   ar
    41     7    10    1
    42    34    36    1
@<TRIPOS>MOLECULE
*****
 40 42 0 0 0
SMALL
GASTEIGER

@<TRIPOS>ATOM
      1 C         142.7368  139.1477  159.5981 C.ar    1  UNL1        0.0597
      2 C         142.1621  138.1876  158.5992 C.ar    1  UNL1        0.0423
      3 C         142.5873  138.2563  157.1624 C.ar    1  UNL1        0.1504
      4 C         143.5870  139.2853  156.7244 C.ar    1  UNL1        0.0744
      5 C         144.1617  140.2454  157.7234 C.ar    1  UNL1        0.1416
      6 C         143.7366  140.1766  159.1602 C.ar    1  UNL1        0.0416
      7 N         142.9436  139.9865  162.0483 N.am    1  UNL1       -0.2644
      8 C         142.3117  139.0789  161.0350 C.2     1  UNL1        0.2508
      9 O         141.2546  138.1026  161.4585 O.2     1  UNL1       -0.2698
     10 H         143.6374  140.6273  161.7704 H       1  UNL1        0.1566
     11 N         141.5030  140.4647  165.6207 N.ar    1  UNL1       -0.2357
     12 C         142.2258  139.1591  165.7720 C.ar    1  UNL1        0.0988
     13 C         142.8535  138.8210  164.4522 C.ar    1  UNL1        0.0565
     14 C         142.5185  139.9177  163.4852 C.ar    1  UNL1        0.1557
     15 N         141.6839  140.9336  164.2074 N.ar    1  UNL1       -0.1534
     16 C         140.7342  141.1764  166.6941 C.3     1  UNL1        0.2423
     17 P         139.8636  140.3976  167.6352 P.3     1  UNL1        0.3677
     18 O         138.9930  139.6188  168.5761 O.2     1  UNL1       -0.2557
     19 O         140.7973  140.7184  168.7645 O.3     1  UNL1       -0.2928
     20 C         142.3981  138.9943  169.8666 C.3     1  UNL1        0.0352
     21 C         141.0717  139.6935  169.8248 C.3     1  UNL1        0.1515
     22 O         138.9299  140.0769  166.5058 O.3     1  UNL1       -0.2928
     23 C         138.3183  138.7111  166.4031 C.3     1  UNL1        0.1515
     24 C         138.7992  137.7507  165.3561 C.3     1  UNL1        0.0352
     25 O         142.0126  137.2962  156.1634 O.3     1  UNL1       -0.4347
     26 C         142.2416  135.8223  156.3221 C.ar    1  UNL1        0.2494
     27 C         141.4812  134.8491  155.4707 C.ar    1  UNL1        0.1569
     28 N         141.7103  133.3753  155.6294 N.ar    1  UNL1       -0.2328
     29 C         142.6997  132.8745  156.6395 C.ar    1  UNL1        0.1538
     30 C         143.4601  133.8476  157.4909 C.ar    1  UNL1        0.1258
     31 N         143.2310  135.3215  157.3322 N.ar    1  UNL1       -0.2068
     32 C         142.9288  131.4006  156.7983 C.2     1  UNL1        0.2652
     33 O         142.3042  130.4364  155.8339 O.2     1  UNL1       -0.2684
     34 N         143.7825  130.8910  157.9215 N.am    1  UNL1       -0.2979
     35 C         144.0115  129.4171  158.0802 C.3     1  UNL1        0.1110
     36 H         144.1925  131.5238  158.5544 H       1  UNL1        0.1498
     37 O         145.1614  141.2743  157.2854 O.3     1  UNL1       -0.4791
     38 C         145.2199  141.6992  155.8481 C.3     1  UNL1        0.1661
     39 C         146.2785  141.1414  154.9436 C.3     1  UNL1        0.0472
     40 C         144.2196  142.6819  155.3152 C.3     1  UNL1        0.0472
@<TRIPOS>BOND
     1    20    21    1
     2    21    19    1
     3    19    17    1
     4    17    18    2
     5    17    16    1
     6    16    11    1
     7    11    12   ar
     8    12    13   ar
     9    13    14   ar
    10    14     7    1
    11     7     8   am
    12     8     9    2
    13     8     1    1
    14     1     2   ar
    15     2     3   ar
    16     3    25    1
    17    25    26    1
    18    26    27   ar
    19    27    28   ar
    20    28    29   ar
    21    29    32    1
    22    32    33    2
    23    32    34   am
    24    34    35    1
    25    29    30   ar
    26    30    31   ar
    27     3     4   ar
    28     4     5   ar
    29     5    37    1
    30    37    38    1
    31    38    39    1
    32    38    40    1
    33     5     6   ar
    34    14    15   ar
    35    17    22    1
    36    22    23    1
    37    23    24    1
    38    15    11   ar
    39     6     1   ar
    40    31    26   ar
    41     7    10    1
    42    34    36    1
@<TRIPOS>MOLECULE
*****
 40 42 0 0 0
SMALL
GASTEIGER

@<TRIPOS>ATOM
      1 C         141.4104  138.4573  158.2622 C.ar    1  UNL1        0.0597
      2 C         140.1450  138.2151  159.0303 C.ar    1  UNL1        0.0423
      3 C         139.6845  139.2133  160.0508 C.ar    1  UNL1        0.1504
      4 C         140.4893  140.4537  160.3032 C.ar    1  UNL1        0.0744
      5 C         141.7547  140.6958  159.5351 C.ar    1  UNL1        0.1416
      6 C         142.2153  139.6976  158.5146 C.ar    1  UNL1        0.0416
      7 N         140.8683  136.6149  156.5124 N.am    1  UNL1       -0.2644
      8 C         141.8710  137.4590  157.2416 C.2     1  UNL1        0.2508
      9 O         143.3344  137.3051  156.9504 O.2     1  UNL1       -0.2698
     10 H         139.9078  136.7159  156.7036 H       1  UNL1        0.1566
     11 N         142.2815  133.6317  154.4705 N.ar    1  UNL1       -0.2357
     12 C         141.7937  134.5295  153.3722 C.ar    1  UNL1        0.0988
     13 C         141.2049  135.7563  154.0035 C.ar    1  UNL1        0.0565
     14 C         141.3289  135.6166  155.4919 C.ar    1  UNL1        0.1557
     15 N         141.9942  134.3036  155.7805 N.ar    1  UNL1       -0.1534
     16 C         142.9407  132.2966  154.2904 C.3     1  UNL1        0.2423
     17 P         143.0154  131.3357  155.4399 P.3     1  UNL1        0.3677
     18 O         143.0902  130.3750  156.5894 O.2     1  UNL1       -0.2557
     19 O         141.6247  130.8633  155.1355 O.3     1  UNL1       -0.2928
     20 C         139.8544  130.1534  153.3715 C.3     1  UNL1        0.0352
     21 C         141.2875  130.3587  153.7637 C.3     1  UNL1        0.1515
     22 O         144.4062  131.8082  155.7443 O.3     1  UNL1       -0.2928
     23 C         144.9568  131.6738  157.1331 C.3     1  UNL1        0.1515
     24 C         144.9432  132.8511  158.0625 C.3     1  UNL1        0.0352
     25 O         138.4190  138.9712  160.8190 O.3     1  UNL1       -0.4347
     26 C         138.4295  139.0260  162.3180 C.ar    1  UNL1        0.2494
     27 C         138.8135  137.8115  163.1103 C.ar    1  UNL1        0.1569
     28 N         138.8240  137.8663  164.6092 N.ar    1  UNL1       -0.2328
     29 C         138.4504  139.1356  165.3159 C.ar    1  UNL1        0.1538
     30 C         138.0663  140.3500  164.5237 C.ar    1  UNL1        0.1258
     31 N         138.0559  140.2952  163.0247 N.ar    1  UNL1       -0.2068
     32 C         138.4608  139.1904  166.8149 C.2     1  UNL1        0.2652
     33 O         137.4809  138.3720  167.6022 O.2     1  UNL1       -0.2684
     34 N         139.4513  140.0638  167.5266 N.am    1  UNL1       -0.2979
     35 C         139.4617  140.1186  169.0255 C.3     1  UNL1        0.1110
     36 H         140.0944  140.6010  167.0098 H       1  UNL1        0.1498
     37 O         142.5596  141.9362  159.7874 O.3     1  UNL1       -0.4791
     38 C         143.4884  142.0012  160.9634 C.3     1  UNL1        0.1661
     39 C         143.7185  143.3063  161.6661 C.3     1  UNL1        0.0472
     40 C         144.1872  140.7611  161.4367 C.3     1  UNL1        0.0472
@<TRIPOS>BOND
     1    20    21    1
     2    21    19    1
     3    19    17    1
     4    17    18    2
     5    17    16    1
     6    16    11    1
     7    11    12   ar
     8    12    13   ar
     9    13    14   ar
    10    14     7    1
    11     7     8   am
    12     8     9    2
    13     8     1    1
    14     1     2   ar
    15     2     3   ar
    16     3    25    1
    17    25    26    1
    18    26    27   ar
    19    27    28   ar
    20    28    29   ar
    21    29    32    1
    22    32    33    2
    23    32    34   am
    24    34    35    1
    25    29    30   ar
    26    30    31   ar
    27     3     4   ar
    28     4     5   ar
    29     5    37    1
    30    37    38    1
    31    38    39    1
    32    38    40    1
    33     5     6   ar
    34    14    15   ar
    35    17    22    1
    36    22    23    1
    37    23    24    1
    38    15    11   ar
    39     6     1   ar
    40    31    26   ar
    41     7    10    1
    42    34    36    1
@<TRIPOS>MOLECULE
*****
 40 42 0 0 0
SMALL
GASTEIGER

@<TRIPOS>ATOM
      1 C         138.0736  142.0536  157.9724 C.ar    1  UNL1        0.0597
      2 C         137.0803  141.1877  157.2557 C.ar    1  UNL1        0.0423
      3 C         136.8752  141.3466  155.7784 C.ar    1  UNL1        0.1504
      4 C         137.6633  142.3715  155.0177 C.ar    1  UNL1        0.0744
      5 C         138.6565  143.2373  155.7344 C.ar    1  UNL1        0.1416
      6 C         138.8617  143.0784  157.2117 C.ar    1  UNL1        0.0416
      7 N         138.4505  143.1059  160.3177 N.am    1  UNL1       -0.2644
      8 C         138.2787  141.8947  159.4498 C.2     1  UNL1        0.2508
      9 O         138.3122  140.5245  160.0593 O.2     1  UNL1       -0.2698
     10 H         138.4286  144.0052  159.9177 H       1  UNL1        0.1566
     11 N         139.5947  142.3059  163.9394 N.ar    1  UNL1       -0.2357
     12 C         138.3481  143.0991  164.1978 C.ar    1  UNL1        0.0988
     13 C         137.7677  143.4954  162.8725 C.ar    1  UNL1        0.0565
     14 C         138.6557  142.9470  161.7952 C.ar    1  UNL1        0.1557
     15 N         139.7848  142.2119  162.4545 N.ar    1  UNL1       -0.1534
     16 C         140.4934  141.7112  164.9827 C.3     1  UNL1        0.2423
     17 P         140.5317  140.2248  165.1807 P.3     1  UNL1        0.3677
     18 O         140.5700  138.7385  165.3789 O.2     1  UNL1       -0.2557
     19 O         141.8285  140.1581  164.4298 O.3     1  UNL1       -0.2928
     20 C         144.3752  139.6442  164.4391 C.3     1  UNL1        0.0352
     21 C         143.0111  139.4622  165.0358 C.3     1  UNL1        0.1515
     22 O         139.2349  140.2916  165.9317 O.3     1  UNL1       -0.2928
     23 C         139.0969  139.5957  167.2534 C.3     1  UNL1        0.1515
     24 C         139.5953  140.2564  168.5044 C.3     1  UNL1        0.0352
     25 O         135.8819  140.4807  155.0616 O.3     1  UNL1       -0.4347
     26 C         134.5052  140.2927  155.6269 C.ar    1  UNL1        0.2494
     27 C         133.4139  141.2622  155.2817 C.ar    1  UNL1        0.1569
     28 N         132.0372  141.0742  155.8470 N.ar    1  UNL1       -0.2328
     29 C         131.7520  139.9168  156.7575 C.ar    1  UNL1        0.1538
     30 C         132.8433  138.9474  157.1027 C.ar    1  UNL1        0.1258
     31 N         134.2199  139.1354  156.5374 N.ar    1  UNL1       -0.2068
     32 C         130.3754  139.7288  157.3228 C.2     1  UNL1        0.2652
     33 O         129.1810  140.2437  156.5756 O.2     1  UNL1       -0.2684
     34 N         130.1931  139.0259  158.6354 N.am    1  UNL1       -0.2979
     35 C         128.8165  138.8379  159.2007 C.3     1  UNL1        0.1110
     36 H         130.9770  138.6879  159.1258 H       1  UNL1        0.1498
     37 O         139.4446  144.2622  154.9737 O.3     1  UNL1       -0.4791
     38 C         139.5718  145.6582  155.5073 C.3     1  UNL1        0.1661
     39 C         140.7914  146.0557  156.2848 C.3     1  UNL1        0.0472
     40 C         138.4793  146.6568  155.2635 C.3     1  UNL1        0.0472
@<TRIPOS>BOND
     1    20    21    1
     2    21    19    1
     3    19    17    1
     4    17    18    2
     5    17    16    1
     6    16    11    1
     7    11    12   ar
     8    12    13   ar
     9    13    14   ar
    10    14     7    1
    11     7     8   am
    12     8     9    2
    13     8     1    1
    14     1     2   ar
    15     2     3   ar
    16     3    25    1
    17    25    26    1
    18    26    27   ar
    19    27    28   ar
    20    28    29   ar
    21    29    32    1
    22    32    33    2
    23    32    34   am
    24    34    35    1
    25    29    30   ar
    26    30    31   ar
    27     3     4   ar
    28     4     5   ar
    29     5    37    1
    30    37    38    1
    31    38    39    1
    32    38    40    1
    33     5     6   ar
    34    14    15   ar
    35    17    22    1
    36    22    23    1
    37    23    24    1
    38    15    11   ar
    39     6     1   ar
    40    31    26   ar
    41     7    10    1
    42    34    36    1
