@<TRIPOS>MOLECULE
*****
 29 32 0 0 0
SMALL
GASTEIGER

@<TRIPOS>ATOM
      1 C         139.1771  141.1183  164.4380 C.2     1  UNL1        0.1157
      2 N         139.1033  140.6655  165.8662 N.2     1  UNL1       -0.1790
      3 N         140.3313  141.1581  166.5726 N.pl3   1  UNL1       -0.2060
      4 C         140.7988  141.0150  167.9908 C.ar    1  UNL1        0.1052
      5 C         139.9660  140.2578  168.9822 C.ar    1  UNL1        0.0490
      6 C         140.4335  140.1147  170.4003 C.ar    1  UNL1        0.1416
      7 F         139.6007  139.3575  171.3918 F       1  UNL1       -0.2041
      8 C         141.7338  140.7288  170.8269 C.ar    1  UNL1        0.0328
      9 C         142.5667  141.4861  169.8354 C.ar    1  UNL1        0.0405
     10 C         142.0991  141.6291  168.4174 C.ar    1  UNL1        0.1537
     11 O         142.9320  142.3864  167.4259 O.3     1  UNL1       -0.4723
     12 C         142.4644  142.5295  166.0078 C.3     1  UNL1        0.2277
     13 C         141.1641  141.9154  165.5812 C.3     1  UNL1        0.1488
     14 C         140.4508  141.8907  164.2619 C.3     1  UNL1        0.0806
     15 C         141.6267  142.6931  163.7893 C.ar    1  UNL1       -0.0157
     16 C         142.7418  142.0217  163.0438 C.ar    1  UNL1       -0.0039
     17 C         143.9178  142.8241  162.5712 C.ar    1  UNL1       -0.0003
     18 C         143.9787  144.2978  162.8441 C.ar    1  UNL1       -0.0000
     19 C         142.8636  144.9692  163.5896 C.ar    1  UNL1       -0.0003
     20 C         141.6875  144.1668  164.0623 C.ar    1  UNL1       -0.0039
     21 C         138.3172  139.6635  162.4646 C.3     1  UNL1        0.0786
     22 C         138.1564  140.8463  163.3730 C.2     1  UNL1        0.1887
     23 O         136.9749  141.7571  163.2164 O.2     1  UNL1       -0.2900
     24 C         139.9833  142.0338  162.8438 C.3     1  UNL1        0.0130
     25 C         139.5106  143.3655  162.3407 C.3     1  UNL1        0.0181
     26 C         139.6936  143.7299  160.8972 C.3     1  UNL1        0.0722
     27 N         139.8853  145.1648  160.5044 N.3     1  UNL1       -0.2703
     28 C         140.3499  145.5078  159.1200 C.3     1  UNL1        0.0897
     29 C         139.6123  146.2568  161.4959 C.3     1  UNL1        0.0897
@<TRIPOS>BOND
     1    21    22    1
     2    22    23    2
     3    22     1    1
     4     1     2    2
     5     2     3    1
     6     3     4    1
     7     4     5   ar
     8     5     6   ar
     9     6     7    1
    10     6     8   ar
    11     8     9   ar
    12     9    10   ar
    13    10    11    1
    14    11    12    1
    15    13    12    1
    16    13    14    1
    17    14    24    1
    18    24    25    1
    19    25    26    1
    20    26    27    1
    21    27    28    1
    22    27    29    1
    23    14    15    1
    24    15    16   ar
    25    16    17   ar
    26    17    18   ar
    27    18    19   ar
    28    19    20   ar
    29    14     1    1
    30    20    15   ar
    31    13     3    1
    32    10     4   ar
@<TRIPOS>MOLECULE
*****
 29 32 0 0 0
SMALL
GASTEIGER

@<TRIPOS>ATOM
      1 C         143.8181  141.7509  164.2726 C.2     1  UNL1        0.1157
      2 N         143.8693  142.2564  165.6839 N.2     1  UNL1       -0.1790
      3 N         142.8220  141.5298  166.4747 N.pl3   1  UNL1       -0.2060
      4 C         142.4141  141.6141  167.9157 C.ar    1  UNL1        0.1052
      5 C         143.1125  142.5686  168.8383 C.ar    1  UNL1        0.0490
      6 C         142.7046  142.6528  170.2793 C.ar    1  UNL1        0.1416
      7 F         143.4030  143.6074  171.2019 F       1  UNL1       -0.2041
      8 C         141.5983  141.7826  170.7977 C.ar    1  UNL1        0.0328
      9 C         140.8999  140.8281  169.8751 C.ar    1  UNL1        0.0405
     10 C         141.3078  140.7438  168.4342 C.ar    1  UNL1        0.1537
     11 O         140.6094  139.7893  167.5115 O.3     1  UNL1       -0.4723
     12 C         141.0174  139.7051  166.0705 C.3     1  UNL1        0.2277
     13 C         142.1237  140.5754  165.5521 C.3     1  UNL1        0.1488
     14 C         142.7393  140.7120  164.1911 C.3     1  UNL1        0.0806
     15 C         141.7457  139.6554  163.8084 C.ar    1  UNL1       -0.0157
     16 C         142.0404  138.2118  164.0896 C.ar    1  UNL1       -0.0039
     17 C         141.0468  137.1551  163.7068 C.ar    1  UNL1       -0.0003
     18 C         139.7586  137.5422  163.0429 C.ar    1  UNL1       -0.0000
     19 C         139.4639  138.9859  162.7618 C.ar    1  UNL1       -0.0003
     20 C         140.4575  140.0425  163.1445 C.ar    1  UNL1       -0.0039
     21 C         144.1864  143.2250  162.1650 C.3     1  UNL1        0.0786
     22 C         144.6924  142.2048  163.1413 C.2     1  UNL1        0.1887
     23 O         146.0727  141.6384  162.9863 O.2     1  UNL1       -0.2900
     24 C         143.1472  140.6277  162.7501 C.3     1  UNL1        0.0130
     25 C         143.7575  139.3659  162.2159 C.3     1  UNL1        0.0181
     26 C         144.1575  139.2788  160.7729 C.3     1  UNL1        0.0722
     27 N         143.1097  139.1079  159.7131 N.3     1  UNL1       -0.2703
     28 C         141.8678  138.3195  160.0065 C.3     1  UNL1        0.0897
     29 C         143.3038  139.7256  158.3601 C.3     1  UNL1        0.0897
@<TRIPOS>BOND
     1    21    22    1
     2    22    23    2
     3    22     1    1
     4     1     2    2
     5     2     3    1
     6     3     4    1
     7     4     5   ar
     8     5     6   ar
     9     6     7    1
    10     6     8   ar
    11     8     9   ar
    12     9    10   ar
    13    10    11    1
    14    11    12    1
    15    13    12    1
    16    13    14    1
    17    14    24    1
    18    24    25    1
    19    25    26    1
    20    26    27    1
    21    27    28    1
    22    27    29    1
    23    14    15    1
    24    15    16   ar
    25    16    17   ar
    26    17    18   ar
    27    18    19   ar
    28    19    20   ar
    29    14     1    1
    30    20    15   ar
    31    13     3    1
    32    10     4   ar
@<TRIPOS>MOLECULE
*****
 29 32 0 0 0
SMALL
GASTEIGER

@<TRIPOS>ATOM
      1 C         140.7730  138.7942  164.0642 C.2     1  UNL1        0.1157
      2 N         140.0622  138.9081  165.3802 N.2     1  UNL1       -0.1790
      3 N         140.7398  139.9798  166.1817 N.pl3   1  UNL1       -0.2060
      4 C         140.4742  140.5271  167.5528 C.ar    1  UNL1        0.1052
      5 C         139.3448  139.9786  168.3734 C.ar    1  UNL1        0.0490
      6 C         139.0792  140.5259  169.7445 C.ar    1  UNL1        0.1416
      7 F         137.9497  139.9775  170.5652 F       1  UNL1       -0.2041
      8 C         139.9432  141.6217  170.2950 C.ar    1  UNL1        0.0328
      9 C         141.0726  142.1701  169.4744 C.ar    1  UNL1        0.0405
     10 C         141.3382  141.6228  168.1033 C.ar    1  UNL1        0.1537
     11 O         142.4677  142.1712  167.2826 O.3     1  UNL1       -0.4723
     12 C         142.7333  141.6239  165.9115 C.3     1  UNL1        0.2277
     13 C         141.8693  140.5282  165.3610 C.3     1  UNL1        0.1488
     14 C         141.8898  139.7955  164.0523 C.3     1  UNL1        0.0806
     15 C         143.0622  140.6823  163.7539 C.ar    1  UNL1       -0.0157
     16 C         144.4252  140.3210  164.2653 C.ar    1  UNL1       -0.0039
     17 C         145.5977  141.2078  163.9669 C.ar    1  UNL1       -0.0003
     18 C         145.4070  142.4559  163.1569 C.ar    1  UNL1       -0.0000
     19 C         144.0440  142.8172  162.6455 C.ar    1  UNL1       -0.0003
     20 C         142.8715  141.9304  162.9439 C.ar    1  UNL1       -0.0039
     21 C         139.4102  138.2359  161.9238 C.3     1  UNL1        0.0786
     22 C         140.4274  137.8456  162.9547 C.2     1  UNL1        0.1887
     23 O         141.0992  136.5067  162.8763 O.2     1  UNL1       -0.2900
     24 C         142.1554  139.2482  162.6812 C.3     1  UNL1        0.0130
     25 C         143.5009  138.6734  162.3507 C.3     1  UNL1        0.0181
     26 C         143.7272  138.0080  161.0256 C.3     1  UNL1        0.0722
     27 N         143.3545  138.7166  159.7571 N.3     1  UNL1       -0.2703
     28 C         142.5979  137.9887  158.6859 C.3     1  UNL1        0.0897
     29 C         143.7385  140.1532  159.5599 C.3     1  UNL1        0.0897
@<TRIPOS>BOND
     1    21    22    1
     2    22    23    2
     3    22     1    1
     4     1     2    2
     5     2     3    1
     6     3     4    1
     7     4     5   ar
     8     5     6   ar
     9     6     7    1
    10     6     8   ar
    11     8     9   ar
    12     9    10   ar
    13    10    11    1
    14    11    12    1
    15    13    12    1
    16    13    14    1
    17    14    24    1
    18    24    25    1
    19    25    26    1
    20    26    27    1
    21    27    28    1
    22    27    29    1
    23    14    15    1
    24    15    16   ar
    25    16    17   ar
    26    17    18   ar
    27    18    19   ar
    28    19    20   ar
    29    14     1    1
    30    20    15   ar
    31    13     3    1
    32    10     4   ar
@<TRIPOS>MOLECULE
*****
 29 32 0 0 0
SMALL
GASTEIGER

@<TRIPOS>ATOM
      1 C         139.2342  141.7449  164.5108 C.2     1  UNL1        0.1157
      2 N         139.1755  141.2080  165.9102 N.2     1  UNL1       -0.1790
      3 N         140.5048  141.4577  166.5586 N.pl3   1  UNL1       -0.2060
      4 C         141.0274  141.1450  167.9295 C.ar    1  UNL1        0.1052
      5 C         140.1470  140.4538  168.9281 C.ar    1  UNL1        0.0490
      6 C         140.6696  140.1411  170.2988 C.ar    1  UNL1        0.1416
      7 F         139.7893  139.4499  171.2975 F       1  UNL1       -0.2041
      8 C         142.0726  140.5195  170.6710 C.ar    1  UNL1        0.0328
      9 C         142.9529  141.2107  169.6724 C.ar    1  UNL1        0.0405
     10 C         142.4303  141.5234  168.3017 C.ar    1  UNL1        0.1537
     11 O         143.3107  142.2147  167.3030 O.3     1  UNL1       -0.4723
     12 C         142.7881  142.5274  165.9322 C.3     1  UNL1        0.2277
     13 C         141.3851  142.1489  165.5600 C.3     1  UNL1        0.1488
     14 C         140.5999  142.3264  164.2944 C.3     1  UNL1        0.0806
     15 C         141.8563  142.9733  163.7914 C.ar    1  UNL1       -0.0157
     16 C         141.9868  144.4675  163.8027 C.ar    1  UNL1       -0.0039
     17 C         143.2433  145.1145  163.2997 C.ar    1  UNL1       -0.0003
     18 C         144.3691  144.2671  162.7854 C.ar    1  UNL1       -0.0000
     19 C         144.2385  142.7729  162.7740 C.ar    1  UNL1       -0.0003
     20 C         142.9821  142.1259  163.2771 C.ar    1  UNL1       -0.0039
     21 C         137.7146  140.4026  162.8863 C.3     1  UNL1        0.0786
     22 C         138.1224  141.7070  163.5045 C.2     1  UNL1        0.1887
     23 O         137.4185  142.9734  163.1164 O.2     1  UNL1       -0.2900
     24 C         140.0773  142.6392  162.9235 C.3     1  UNL1        0.0130
     25 C         140.6382  141.9294  161.7271 C.3     1  UNL1        0.0181
     26 C         140.5533  142.5640  160.3706 C.3     1  UNL1        0.0722
     27 N         141.4863  143.6803  160.0051 N.3     1  UNL1       -0.2703
     28 C         142.8333  143.3713  159.4218 C.3     1  UNL1        0.0897
     29 C         141.0723  145.1055  160.2229 C.3     1  UNL1        0.0897
@<TRIPOS>BOND
     1    21    22    1
     2    22    23    2
     3    22     1    1
     4     1     2    2
     5     2     3    1
     6     3     4    1
     7     4     5   ar
     8     5     6   ar
     9     6     7    1
    10     6     8   ar
    11     8     9   ar
    12     9    10   ar
    13    10    11    1
    14    11    12    1
    15    13    12    1
    16    13    14    1
    17    14    24    1
    18    24    25    1
    19    25    26    1
    20    26    27    1
    21    27    28    1
    22    27    29    1
    23    14    15    1
    24    15    16   ar
    25    16    17   ar
    26    17    18   ar
    27    18    19   ar
    28    19    20   ar
    29    14     1    1
    30    20    15   ar
    31    13     3    1
    32    10     4   ar
@<TRIPOS>MOLECULE
*****
 29 32 0 0 0
SMALL
GASTEIGER

@<TRIPOS>ATOM
      1 C         143.5378  140.9148  163.7760 C.2     1  UNL1        0.1157
      2 N         143.5568  140.2045  165.0970 N.2     1  UNL1       -0.1790
      3 N         142.4586  140.7739  165.9453 N.pl3   1  UNL1       -0.2060
      4 C         142.0038  140.4623  167.3404 C.ar    1  UNL1        0.1052
      5 C         142.7016  139.4001  168.1371 C.ar    1  UNL1        0.0490
      6 C         142.2468  139.0886  169.5321 C.ar    1  UNL1        0.1416
      7 F         142.9445  138.0264  170.3288 F       1  UNL1       -0.2041
      8 C         141.0942  139.8393  170.1304 C.ar    1  UNL1        0.0328
      9 C         140.3964  140.9015  169.3337 C.ar    1  UNL1        0.0405
     10 C         140.8512  141.2130  167.9387 C.ar    1  UNL1        0.1537
     11 O         140.1534  142.2753  167.1419 O.3     1  UNL1       -0.4723
     12 C         140.6082  142.5868  165.7469 C.3     1  UNL1        0.2277
     13 C         141.7608  141.8361  165.1486 C.3     1  UNL1        0.1488
     14 C         142.4278  141.9232  163.8079 C.3     1  UNL1        0.0806
     15 C         141.4129  142.9967  163.5481 C.ar    1  UNL1       -0.0157
     16 C         141.8098  144.4407  163.6341 C.ar    1  UNL1       -0.0039
     17 C         140.7949  145.5143  163.3743 C.ar    1  UNL1       -0.0003
     18 C         139.3830  145.1438  163.0286 C.ar    1  UNL1       -0.0000
     19 C         138.9861  143.6999  162.9426 C.ar    1  UNL1       -0.0003
     20 C         140.0010  142.6263  163.2023 C.ar    1  UNL1       -0.0039
     21 C         144.2675  139.4571  161.7529 C.3     1  UNL1        0.0786
     22 C         144.4658  140.6612  162.6251 C.2     1  UNL1        0.1887
     23 O         145.5923  141.6118  162.3465 O.2     1  UNL1       -0.2900
     24 C         142.8826  142.2347  162.4128 C.3     1  UNL1        0.0130
     25 C         141.9722  141.9700  161.2505 C.3     1  UNL1        0.0181
     26 C         142.0545  142.8279  160.0228 C.3     1  UNL1        0.0722
     27 N         140.9285  143.7582  159.6810 N.3     1  UNL1       -0.2703
     28 C         139.5821  143.2049  159.3190 C.3     1  UNL1        0.0897
     29 C         141.1490  145.2418  159.7013 C.3     1  UNL1        0.0897
@<TRIPOS>BOND
     1    21    22    1
     2    22    23    2
     3    22     1    1
     4     1     2    2
     5     2     3    1
     6     3     4    1
     7     4     5   ar
     8     5     6   ar
     9     6     7    1
    10     6     8   ar
    11     8     9   ar
    12     9    10   ar
    13    10    11    1
    14    11    12    1
    15    13    12    1
    16    13    14    1
    17    14    24    1
    18    24    25    1
    19    25    26    1
    20    26    27    1
    21    27    28    1
    22    27    29    1
    23    14    15    1
    24    15    16   ar
    25    16    17   ar
    26    17    18   ar
    27    18    19   ar
    28    19    20   ar
    29    14     1    1
    30    20    15   ar
    31    13     3    1
    32    10     4   ar
@<TRIPOS>MOLECULE
*****
 29 32 0 0 0
SMALL
GASTEIGER

@<TRIPOS>ATOM
      1 C         139.0057  141.7035  164.2748 C.2     1  UNL1        0.1157
      2 N         139.0368  141.4107  165.7456 N.2     1  UNL1       -0.1790
      3 N         140.3455  140.7481  166.0587 N.pl3   1  UNL1       -0.2060
      4 C         140.9295  140.2359  167.3420 C.ar    1  UNL1        0.1052
      5 C         140.1517  140.3527  168.6192 C.ar    1  UNL1        0.0490
      6 C         140.7357  139.8406  169.9024 C.ar    1  UNL1        0.1416
      7 F         139.9579  139.9573  171.1797 F       1  UNL1       -0.2041
      8 C         142.0975  139.2117  169.9084 C.ar    1  UNL1        0.0328
      9 C         142.8752  139.0949  168.6312 C.ar    1  UNL1        0.0405
     10 C         142.2913  139.6071  167.3480 C.ar    1  UNL1        0.1537
     11 O         143.0691  139.4903  166.0706 O.3     1  UNL1       -0.4723
     12 C         142.4851  140.0025  164.7875 C.3     1  UNL1        0.2277
     13 C         141.1233  140.6314  164.7815 C.3     1  UNL1        0.1488
     14 C         140.2952  141.2218  163.6789 C.3     1  UNL1        0.0806
     15 C         141.4627  140.8472  162.8148 C.ar    1  UNL1       -0.0157
     16 C         142.6804  141.7224  162.7787 C.ar    1  UNL1       -0.0039
     17 C         143.8479  141.3479  161.9146 C.ar    1  UNL1       -0.0003
     18 C         143.7977  140.0981  161.0866 C.ar    1  UNL1       -0.0000
     19 C         142.5801  139.2229  161.1227 C.ar    1  UNL1       -0.0003
     20 C         141.4125  139.5975  161.9868 C.ar    1  UNL1       -0.0039
     21 C         137.6293  143.8309  163.7007 C.3     1  UNL1        0.0786
     22 C         137.8822  142.3623  163.5304 C.2     1  UNL1        0.1887
     23 O         137.0118  141.5524  162.6159 O.2     1  UNL1       -0.2900
     24 C         139.7113  141.7340  162.3956 C.3     1  UNL1        0.0130
     25 C         140.3827  142.8564  161.6614 C.3     1  UNL1        0.0181
     26 C         139.6099  143.6697  160.6658 C.3     1  UNL1        0.0722
     27 N         139.9664  145.1083  160.4342 N.3     1  UNL1       -0.2703
     28 C         139.6702  146.1334  161.4884 C.3     1  UNL1        0.0897
     29 C         140.6190  145.5216  159.1484 C.3     1  UNL1        0.0897
@<TRIPOS>BOND
     1    21    22    1
     2    22    23    2
     3    22     1    1
     4     1     2    2
     5     2     3    1
     6     3     4    1
     7     4     5   ar
     8     5     6   ar
     9     6     7    1
    10     6     8   ar
    11     8     9   ar
    12     9    10   ar
    13    10    11    1
    14    11    12    1
    15    13    12    1
    16    13    14    1
    17    14    24    1
    18    24    25    1
    19    25    26    1
    20    26    27    1
    21    27    28    1
    22    27    29    1
    23    14    15    1
    24    15    16   ar
    25    16    17   ar
    26    17    18   ar
    27    18    19   ar
    28    19    20   ar
    29    14     1    1
    30    20    15   ar
    31    13     3    1
    32    10     4   ar
@<TRIPOS>MOLECULE
*****
 29 32 0 0 0
SMALL
GASTEIGER

@<TRIPOS>ATOM
      1 C         141.4328  139.1317  164.2883 C.2     1  UNL1        0.1157
      2 N         141.9791  139.0814  165.6844 N.2     1  UNL1       -0.1790
      3 N         141.4984  140.3004  166.4143 N.pl3   1  UNL1       -0.2060
      4 C         141.7198  140.7824  167.8175 C.ar    1  UNL1        0.1052
      5 C         142.5631  139.9787  168.7623 C.ar    1  UNL1        0.0490
      6 C         142.7844  140.4607  170.1654 C.ar    1  UNL1        0.1416
      7 F         143.6277  139.6570  171.1104 F       1  UNL1       -0.2041
      8 C         142.1623  141.7465  170.6236 C.ar    1  UNL1        0.0328
      9 C         141.3190  142.5502  169.6788 C.ar    1  UNL1        0.0405
     10 C         141.0977  142.0682  168.2757 C.ar    1  UNL1        0.1537
     11 O         140.2544  142.8719  167.3308 O.3     1  UNL1       -0.4723
     12 C         140.0331  142.3899  165.9277 C.3     1  UNL1        0.2277
     13 C         140.6551  141.1041  165.4695 C.3     1  UNL1        0.1488
     14 C         140.6146  140.3818  164.1555 C.3     1  UNL1        0.0806
     15 C         139.7500  141.5312  163.7293 C.ar    1  UNL1       -0.0157
     16 C         140.3767  142.8383  163.3436 C.ar    1  UNL1       -0.0039
     17 C         139.5122  143.9877  162.9175 C.ar    1  UNL1       -0.0003
     18 C         138.0210  143.8300  162.8770 C.ar    1  UNL1       -0.0000
     19 C         137.3944  142.5229  163.2627 C.ar    1  UNL1       -0.0003
     20 C         138.2589  141.3734  163.6889 C.ar    1  UNL1       -0.0039
     21 C         142.9548  138.1061  162.4493 C.3     1  UNL1        0.0786
     22 C         141.6642  138.1111  163.2136 C.2     1  UNL1        0.1887
     23 O         140.6049  137.0954  162.9033 O.2     1  UNL1       -0.2900
     24 C         140.3932  139.8998  162.7523 C.3     1  UNL1        0.0130
     25 C         140.9150  140.6976  161.5942 C.3     1  UNL1        0.0181
     26 C         140.3015  140.5358  160.2350 C.3     1  UNL1        0.0722
     27 N         138.8842  140.9651  159.9960 N.3     1  UNL1       -0.2703
     28 C         137.7648  139.9797  160.1569 C.3     1  UNL1        0.0897
     29 C         138.5863  142.3798  159.5960 C.3     1  UNL1        0.0897
@<TRIPOS>BOND
     1    21    22    1
     2    22    23    2
     3    22     1    1
     4     1     2    2
     5     2     3    1
     6     3     4    1
     7     4     5   ar
     8     5     6   ar
     9     6     7    1
    10     6     8   ar
    11     8     9   ar
    12     9    10   ar
    13    10    11    1
    14    11    12    1
    15    13    12    1
    16    13    14    1
    17    14    24    1
    18    24    25    1
    19    25    26    1
    20    26    27    1
    21    27    28    1
    22    27    29    1
    23    14    15    1
    24    15    16   ar
    25    16    17   ar
    26    17    18   ar
    27    18    19   ar
    28    19    20   ar
    29    14     1    1
    30    20    15   ar
    31    13     3    1
    32    10     4   ar
@<TRIPOS>MOLECULE
*****
 29 32 0 0 0
SMALL
GASTEIGER

@<TRIPOS>ATOM
      1 C         140.1647  143.4774  163.1436 C.2     1  UNL1        0.1157
      2 N         140.3077  143.6770  164.6234 N.2     1  UNL1       -0.1790
      3 N         140.0831  142.3540  165.2934 N.pl3   1  UNL1       -0.2060
      4 C         140.0987  141.9441  166.7363 C.ar    1  UNL1        0.1052
      5 C         140.3804  142.9615  167.8019 C.ar    1  UNL1        0.0490
      6 C         140.3961  142.5516  169.2447 C.ar    1  UNL1        0.1416
      7 F         140.6778  143.5690  170.3104 F       1  UNL1       -0.2041
      8 C         140.1300  141.1244  169.6219 C.ar    1  UNL1        0.0328
      9 C         139.8482  140.1071  168.5563 C.ar    1  UNL1        0.0405
     10 C         139.8326  140.5169  167.1135 C.ar    1  UNL1        0.1537
     11 O         139.5509  139.4995  166.0478 O.3     1  UNL1       -0.4723
     12 C         139.5353  139.9094  164.6050 C.3     1  UNL1        0.2277
     13 C         139.8014  141.3366  164.2278 C.3     1  UNL1        0.1488
     14 C         139.8518  142.0309  162.8991 C.3     1  UNL1        0.0806
     15 C         139.5356  140.6702  162.3530 C.ar    1  UNL1       -0.0157
     16 C         140.6314  139.8156  161.7881 C.ar    1  UNL1       -0.0039
     17 C         140.3152  138.4547  161.2419 C.ar    1  UNL1       -0.0003
     18 C         138.9033  137.9485  161.2606 C.ar    1  UNL1       -0.0000
     19 C         137.8076  138.8031  161.8255 C.ar    1  UNL1       -0.0003
     20 C         138.1238  140.1639  162.3717 C.ar    1  UNL1       -0.0039
     21 C         141.6014  144.6812  161.3444 C.3     1  UNL1        0.0786
     22 C         140.3094  144.5381  162.0928 C.2     1  UNL1        0.1887
     23 O         139.1619  145.4556  161.7904 O.2     1  UNL1       -0.2900
     24 C         139.8362  142.4408  161.4562 C.3     1  UNL1        0.0130
     25 C         138.5659  142.3482  160.6640 C.3     1  UNL1        0.0181
     26 C         138.5633  142.7035  159.2067 C.3     1  UNL1        0.0722
     27 N         138.1354  141.6888  158.1881 N.3     1  UNL1       -0.2703
     28 C         137.3251  142.1146  156.9998 C.3     1  UNL1        0.0897
     29 C         138.5179  140.2483  158.3579 C.3     1  UNL1        0.0897
@<TRIPOS>BOND
     1    21    22    1
     2    22    23    2
     3    22     1    1
     4     1     2    2
     5     2     3    1
     6     3     4    1
     7     4     5   ar
     8     5     6   ar
     9     6     7    1
    10     6     8   ar
    11     8     9   ar
    12     9    10   ar
    13    10    11    1
    14    11    12    1
    15    13    12    1
    16    13    14    1
    17    14    24    1
    18    24    25    1
    19    25    26    1
    20    26    27    1
    21    27    28    1
    22    27    29    1
    23    14    15    1
    24    15    16   ar
    25    16    17   ar
    26    17    18   ar
    27    18    19   ar
    28    19    20   ar
    29    14     1    1
    30    20    15   ar
    31    13     3    1
    32    10     4   ar
@<TRIPOS>MOLECULE
*****
 29 32 0 0 0
SMALL
GASTEIGER

@<TRIPOS>ATOM
      1 C         139.6842  143.4082  163.6752 C.2     1  UNL1        0.1157
      2 N         140.3682  143.4938  165.0075 N.2     1  UNL1       -0.1790
      3 N         140.7514  142.1041  165.4218 N.pl3   1  UNL1       -0.2060
      4 C         141.4498  141.5766  166.6401 C.ar    1  UNL1        0.1052
      5 C         141.8970  142.5211  167.7161 C.ar    1  UNL1        0.0490
      6 C         142.5954  141.9937  168.9343 C.ar    1  UNL1        0.1416
      7 F         143.0427  142.9382  170.0104 F       1  UNL1       -0.2041
      8 C         142.8465  140.5217  169.0765 C.ar    1  UNL1        0.0328
      9 C         142.3993  139.5772  168.0005 C.ar    1  UNL1        0.0405
     10 C         141.7009  140.1046  166.7823 C.ar    1  UNL1        0.1537
     11 O         141.2537  139.1601  165.7062 O.3     1  UNL1       -0.4723
     12 C         140.5553  139.6876  164.4880 C.3     1  UNL1        0.2277
     13 C         140.3042  141.1596  164.3458 C.3     1  UNL1        0.1488
     14 C         139.6446  141.9656  163.2664 C.3     1  UNL1        0.0806
     15 C         139.4590  140.6332  162.6028 C.ar    1  UNL1       -0.0157
     16 C         140.5948  140.0051  161.8510 C.ar    1  UNL1       -0.0039
     17 C         140.4093  138.6726  161.1874 C.ar    1  UNL1       -0.0003
     18 C         139.0878  137.9684  161.2756 C.ar    1  UNL1       -0.0000
     19 C         137.9519  138.5965  162.0274 C.ar    1  UNL1       -0.0003
     20 C         138.1375  139.9290  162.6910 C.ar    1  UNL1       -0.0039
     21 C         140.0676  145.5859  162.3112 C.3     1  UNL1        0.0786
     22 C         139.1359  144.5626  162.8898 C.2     1  UNL1        0.1887
     23 O         137.6560  144.6937  162.6831 O.2     1  UNL1       -0.2900
     24 C         138.9462  142.4930  162.0481 C.3     1  UNL1        0.0130
     25 C         139.6010  142.3860  160.7029 C.3     1  UNL1        0.0181
     26 C         138.9101  142.9287  159.4871 C.3     1  UNL1        0.0722
     27 N         138.3289  141.9890  158.4726 N.3     1  UNL1       -0.2703
     28 C         138.0366  140.5666  158.8485 C.3     1  UNL1        0.0897
     29 C         138.0399  142.4718  157.0821 C.3     1  UNL1        0.0897
@<TRIPOS>BOND
     1    21    22    1
     2    22    23    2
     3    22     1    1
     4     1     2    2
     5     2     3    1
     6     3     4    1
     7     4     5   ar
     8     5     6   ar
     9     6     7    1
    10     6     8   ar
    11     8     9   ar
    12     9    10   ar
    13    10    11    1
    14    11    12    1
    15    13    12    1
    16    13    14    1
    17    14    24    1
    18    24    25    1
    19    25    26    1
    20    26    27    1
    21    27    28    1
    22    27    29    1
    23    14    15    1
    24    15    16   ar
    25    16    17   ar
    26    17    18   ar
    27    18    19   ar
    28    19    20   ar
    29    14     1    1
    30    20    15   ar
    31    13     3    1
    32    10     4   ar
