@<TRIPOS>MOLECULE
*****
 27 29 0 0 0
SMALL
GASTEIGER

@<TRIPOS>ATOM
      1 C         140.2775  139.9407  167.9123 C.3     1  UNL1        0.1466
      2 C         140.8133  141.1509  168.6181 C.3     1  UNL1        0.0489
      3 C         140.4810  140.2868  169.7983 C.3     1  UNL1        0.0236
      4 C         140.7352  140.7870  171.1894 C.3     1  UNL1        0.0690
      5 N         141.3219  142.1514  171.4003 N.3     1  UNL1       -0.2974
      6 C         141.6542  143.0155  170.2201 C.3     1  UNL1        0.0690
      7 C         141.4000  142.5153  168.8290 C.3     1  UNL1        0.0236
      8 H         142.1878  142.0219  171.9236 H       1  UNL1        0.1232
      9 C         140.9596  141.5947  167.1927 C.ar    1  UNL1       -0.0204
     10 C         141.6488  140.7082  166.1982 C.ar    1  UNL1       -0.0042
     11 C         141.7951  141.1521  164.7728 C.ar    1  UNL1       -0.0003
     12 C         141.2522  142.4823  164.3420 C.ar    1  UNL1       -0.0000
     13 C         140.5629  143.3688  165.3366 C.ar    1  UNL1       -0.0003
     14 C         140.4167  142.9250  166.7619 C.ar    1  UNL1       -0.0042
     15 O         138.8572  139.5115  168.1325 O.3     1  UNL1       -0.3487
     16 C         138.1089  138.8063  167.0404 C.3     1  UNL1        0.1686
     17 C         138.0749  141.0286  163.7525 C.ar    1  UNL1        0.0720
     18 C         138.6588  140.0706  162.7568 C.ar    1  UNL1        0.0152
     19 C         139.0593  138.6912  163.1890 C.ar    1  UNL1        0.0574
     20 CL        139.6432  137.7332  162.1933 Cl      1  UNL1       -0.0823
     21 C         138.8760  138.2697  164.6169 C.ar    1  UNL1        0.0095
     22 C         138.2922  139.2277  165.6125 C.ar    1  UNL1        0.0081
     23 C         137.8916  140.6071  165.1803 C.ar    1  UNL1        0.0021
     24 F         137.2738  143.7874  162.8881 F       1  UNL1       -0.1659
     25 C         137.6744  142.4080  163.3203 C.3     1  UNL1        0.4186
     26 F         137.9973  142.0562  161.8983 F       1  UNL1       -0.1659
     27 F         137.3515  142.7597  164.7423 F       1  UNL1       -0.1659
@<TRIPOS>BOND
     1    24    25    1
     2    25    26    1
     3    25    27    1
     4    25    17    1
     5    17    18   ar
     6    18    19   ar
     7    19    20    1
     8    19    21   ar
     9    21    22   ar
    10    22    16    1
    11    16    15    1
    12    15     1    1
    13     1     2    1
    14     2     9    1
    15     9    10   ar
    16    10    11   ar
    17    11    12   ar
    18    12    13   ar
    19    13    14   ar
    20     2     3    1
    21     3     4    1
    22     4     5    1
    23     5     6    1
    24     6     7    1
    25    22    23   ar
    26    23    17   ar
    27     7     2    1
    28    14     9   ar
    29     5     8    1
@<TRIPOS>MOLECULE
*****
 27 29 0 0 0
SMALL
GASTEIGER

@<TRIPOS>ATOM
      1 C         141.7186  142.1797  167.3642 C.3     1  UNL1        0.1466
      2 C         142.1741  141.2493  168.4489 C.3     1  UNL1        0.0489
      3 C         141.4435  142.2695  169.2706 C.3     1  UNL1        0.0236
      4 C         141.3671  142.1172  170.7609 C.3     1  UNL1        0.0690
      5 N         142.0216  140.9447  171.4295 N.3     1  UNL1       -0.2974
      6 C         142.7522  139.9245  170.6078 C.3     1  UNL1        0.0690
      7 C         142.8286  140.0767  169.1175 C.3     1  UNL1        0.0236
      8 H         141.2883  140.4463  171.9337 H       1  UNL1        0.1232
      9 C         142.7466  140.5522  167.2504 C.ar    1  UNL1       -0.0204
     10 C         143.2940  141.3539  166.1069 C.ar    1  UNL1       -0.0042
     11 C         143.8665  140.6567  164.9084 C.ar    1  UNL1       -0.0003
     12 C         143.8916  139.1580  164.8535 C.ar    1  UNL1       -0.0000
     13 C         143.3442  138.3563  165.9971 C.ar    1  UNL1       -0.0003
     14 C         142.7717  139.0534  167.1955 C.ar    1  UNL1       -0.0042
     15 O         140.2559  142.4558  167.1782 O.3     1  UNL1       -0.3487
     16 C         139.5613  142.0078  165.9265 C.3     1  UNL1        0.1686
     17 C         140.0858  138.4561  164.2353 C.ar    1  UNL1        0.0720
     18 C         139.1359  137.6171  165.0376 C.ar    1  UNL1        0.0152
     19 C         138.3279  138.2416  166.1363 C.ar    1  UNL1        0.0574
     20 CL        137.3780  137.4025  166.9386 Cl      1  UNL1       -0.0823
     21 C         138.4697  139.7052  166.4325 C.ar    1  UNL1        0.0095
     22 C         139.4195  140.5442  165.6302 C.ar    1  UNL1        0.0081
     23 C         140.2276  139.9196  164.5316 C.ar    1  UNL1        0.0021
     24 F         141.7019  137.2070  162.0380 F       1  UNL1       -0.1659
     25 C         140.8938  137.8315  163.1367 C.3     1  UNL1        0.4186
     26 F         141.1722  136.6475  164.0145 F       1  UNL1       -0.1659
     27 F         140.6155  139.0156  162.2588 F       1  UNL1       -0.1659
@<TRIPOS>BOND
     1    24    25    1
     2    25    26    1
     3    25    27    1
     4    25    17    1
     5    17    18   ar
     6    18    19   ar
     7    19    20    1
     8    19    21   ar
     9    21    22   ar
    10    22    16    1
    11    16    15    1
    12    15     1    1
    13     1     2    1
    14     2     9    1
    15     9    10   ar
    16    10    11   ar
    17    11    12   ar
    18    12    13   ar
    19    13    14   ar
    20     2     3    1
    21     3     4    1
    22     4     5    1
    23     5     6    1
    24     6     7    1
    25    22    23   ar
    26    23    17   ar
    27     7     2    1
    28    14     9   ar
    29     5     8    1
@<TRIPOS>MOLECULE
*****
 27 29 0 0 0
SMALL
GASTEIGER

@<TRIPOS>ATOM
      1 C         142.4590  140.8172  167.3776 C.3     1  UNL1        0.1466
      2 C         141.6121  141.6496  168.2940 C.3     1  UNL1        0.0489
      3 C         142.9682  141.9201  168.8751 C.3     1  UNL1        0.0236
      4 C         143.1087  142.8287  170.0603 C.3     1  UNL1        0.0690
      5 N         141.8929  143.4668  170.6644 N.3     1  UNL1       -0.2974
      6 C         140.5368  143.1963  170.0833 C.3     1  UNL1        0.0690
      7 C         140.3964  142.2877  168.8981 C.3     1  UNL1        0.0236
      8 H         142.0367  144.4756  170.6193 H       1  UNL1        0.1232
      9 C         140.5501  141.0900  167.3946 C.ar    1  UNL1       -0.0204
     10 C         139.6709  139.9741  167.8762 C.ar    1  UNL1       -0.0042
     11 C         138.6089  139.4145  166.9768 C.ar    1  UNL1       -0.0003
     12 C         138.4260  139.9707  165.5958 C.ar    1  UNL1       -0.0000
     13 C         139.3052  141.0866  165.1142 C.ar    1  UNL1       -0.0003
     14 C         140.3672  141.6462  166.0136 C.ar    1  UNL1       -0.0042
     15 O         143.0872  139.5513  167.8803 O.3     1  UNL1       -0.3487
     16 C         143.4179  138.4460  166.9218 C.3     1  UNL1        0.1686
     17 C         141.1620  138.1284  163.6721 C.ar    1  UNL1        0.0720
     18 C         142.0762  138.7094  162.6345 C.ar    1  UNL1        0.0152
     19 C         143.4377  139.2025  163.0260 C.ar    1  UNL1        0.0574
     20 CL        144.3519  139.7835  161.9883 Cl      1  UNL1       -0.0823
     21 C         143.8849  139.1148  164.4550 C.ar    1  UNL1        0.0095
     22 C         142.9707  138.5338  165.4926 C.ar    1  UNL1        0.0081
     23 C         141.6092  138.0406  165.1011 C.ar    1  UNL1        0.0021
     24 F         138.4391  137.1420  162.8891 F       1  UNL1       -0.1659
     25 C         139.8006  137.6352  163.2806 C.3     1  UNL1        0.4186
     26 F         139.5660  137.1670  164.6862 F       1  UNL1       -0.1659
     27 F         140.0351  138.1034  161.8750 F       1  UNL1       -0.1659
@<TRIPOS>BOND
     1    24    25    1
     2    25    26    1
     3    25    27    1
     4    25    17    1
     5    17    18   ar
     6    18    19   ar
     7    19    20    1
     8    19    21   ar
     9    21    22   ar
    10    22    16    1
    11    16    15    1
    12    15     1    1
    13     1     2    1
    14     2     9    1
    15     9    10   ar
    16    10    11   ar
    17    11    12   ar
    18    12    13   ar
    19    13    14   ar
    20     2     3    1
    21     3     4    1
    22     4     5    1
    23     5     6    1
    24     6     7    1
    25    22    23   ar
    26    23    17   ar
    27     7     2    1
    28    14     9   ar
    29     5     8    1
@<TRIPOS>MOLECULE
*****
 27 29 0 0 0
SMALL
GASTEIGER

@<TRIPOS>ATOM
      1 C         143.1884  140.0465  165.4226 C.3     1  UNL1        0.1466
      2 C         143.5428  140.2969  163.9868 C.3     1  UNL1        0.0489
      3 C         144.5937  141.1265  164.6630 C.3     1  UNL1        0.0236
      4 C         145.5913  141.8882  163.8417 C.3     1  UNL1        0.0690
      5 N         145.5380  141.8203  162.3441 N.3     1  UNL1       -0.2974
      6 C         144.4871  140.9907  161.6680 C.3     1  UNL1        0.0690
      7 C         143.4895  140.2289  162.4893 C.3     1  UNL1        0.0236
      8 H         146.4410  141.4621  162.0333 H       1  UNL1        0.1232
      9 C         142.3688  139.3802  163.8093 C.ar    1  UNL1       -0.0204
     10 C         141.2923  139.7228  162.8225 C.ar    1  UNL1       -0.0042
     11 C         140.1183  138.8062  162.6450 C.ar    1  UNL1       -0.0003
     12 C         140.0208  137.5470  163.4542 C.ar    1  UNL1       -0.0000
     13 C         141.0974  137.2044  164.4410 C.ar    1  UNL1       -0.0003
     14 C         142.2713  138.1210  164.6185 C.ar    1  UNL1       -0.0042
     15 O         143.1075  141.1933  166.3862 O.3     1  UNL1       -0.3487
     16 C         141.8071  141.5160  167.0605 C.3     1  UNL1        0.1686
     17 C         138.5876  141.6131  164.7420 C.ar    1  UNL1        0.0720
     18 C         137.9179  140.3291  165.1330 C.ar    1  UNL1        0.0152
     19 C         138.5445  139.4408  166.1665 C.ar    1  UNL1        0.0574
     20 CL        137.8747  138.1568  166.5575 Cl      1  UNL1       -0.0823
     21 C         139.8409  139.8364  166.8090 C.ar    1  UNL1        0.0095
     22 C         140.5106  141.1203  166.4180 C.ar    1  UNL1        0.0081
     23 C         139.8840  142.0087  165.3845 C.ar    1  UNL1        0.0021
     24 F         137.3342  143.3898  162.6750 F       1  UNL1       -0.1659
     25 C         137.9609  142.5014  163.7085 C.3     1  UNL1        0.4186
     26 F         137.9622  141.3643  162.7303 F       1  UNL1       -0.1659
     27 F         137.9596  143.6386  164.6867 F       1  UNL1       -0.1659
@<TRIPOS>BOND
     1    24    25    1
     2    25    26    1
     3    25    27    1
     4    25    17    1
     5    17    18   ar
     6    18    19   ar
     7    19    20    1
     8    19    21   ar
     9    21    22   ar
    10    22    16    1
    11    16    15    1
    12    15     1    1
    13     1     2    1
    14     2     9    1
    15     9    10   ar
    16    10    11   ar
    17    11    12   ar
    18    12    13   ar
    19    13    14   ar
    20     2     3    1
    21     3     4    1
    22     4     5    1
    23     5     6    1
    24     6     7    1
    25    22    23   ar
    26    23    17   ar
    27     7     2    1
    28    14     9   ar
    29     5     8    1
@<TRIPOS>MOLECULE
*****
 27 29 0 0 0
SMALL
GASTEIGER

@<TRIPOS>ATOM
      1 C         143.2535  139.6097  164.9249 C.3     1  UNL1        0.1466
      2 C         143.6139  140.2129  163.5997 C.3     1  UNL1        0.0489
      3 C         144.7137  140.7761  164.4500 C.3     1  UNL1        0.0236
      4 C         145.7486  141.6741  163.8396 C.3     1  UNL1        0.0690
      5 N         145.6836  142.0089  162.3789 N.3     1  UNL1       -0.2974
      6 C         144.5837  141.4457  161.5286 C.3     1  UNL1        0.0690
      7 C         143.5489  140.5477  162.1390 C.3     1  UNL1        0.0236
      8 H         146.5632  141.6984  161.9662 H       1  UNL1        0.1232
      9 C         142.3888  139.4401  163.2096 C.ar    1  UNL1       -0.0204
     10 C         141.3466  140.0764  162.3384 C.ar    1  UNL1       -0.0042
     11 C         140.1215  139.3037  161.9483 C.ar    1  UNL1       -0.0003
     12 C         139.9386  137.8948  162.4295 C.ar    1  UNL1       -0.0000
     13 C         140.9809  137.2585  163.3008 C.ar    1  UNL1       -0.0003
     14 C         142.2059  138.0313  163.6908 C.ar    1  UNL1       -0.0042
     15 O         143.1954  140.4724  166.1507 O.3     1  UNL1       -0.3487
     16 C         142.0270  141.3874  166.3692 C.3     1  UNL1        0.1686
     17 C         138.6691  139.3072  165.9860 C.ar    1  UNL1        0.0720
     18 C         137.9196  140.1572  165.0033 C.ar    1  UNL1        0.0152
     19 C         138.5393  141.4173  164.4759 C.ar    1  UNL1        0.0574
     20 CL        137.7898  142.2674  163.4932 Cl      1  UNL1       -0.0823
     21 C         139.9084  141.8274  164.9312 C.ar    1  UNL1        0.0095
     22 C         140.6579  140.9773  165.9139 C.ar    1  UNL1        0.0081
     23 C         140.0382  139.7172  166.4413 C.ar    1  UNL1        0.0021
     24 F         137.4297  136.7870  167.0407 F       1  UNL1       -0.1659
     25 C         138.0494  138.0471  166.5134 C.3     1  UNL1        0.4186
     26 F         137.5562  138.7935  167.7174 F       1  UNL1       -0.1659
     27 F         138.5425  137.3007  165.3093 F       1  UNL1       -0.1659
@<TRIPOS>BOND
     1    24    25    1
     2    25    26    1
     3    25    27    1
     4    25    17    1
     5    17    18   ar
     6    18    19   ar
     7    19    20    1
     8    19    21   ar
     9    21    22   ar
    10    22    16    1
    11    16    15    1
    12    15     1    1
    13     1     2    1
    14     2     9    1
    15     9    10   ar
    16    10    11   ar
    17    11    12   ar
    18    12    13   ar
    19    13    14   ar
    20     2     3    1
    21     3     4    1
    22     4     5    1
    23     5     6    1
    24     6     7    1
    25    22    23   ar
    26    23    17   ar
    27     7     2    1
    28    14     9   ar
    29     5     8    1
@<TRIPOS>MOLECULE
*****
 27 29 0 0 0
SMALL
GASTEIGER

@<TRIPOS>ATOM
      1 C         142.8120  142.9420  164.8369 C.3     1  UNL1        0.1466
      2 C         141.4115  143.4790  164.8251 C.3     1  UNL1        0.0489
      3 C         142.0417  144.3724  163.7982 C.3     1  UNL1        0.0236
      4 C         141.2215  145.4278  163.1175 C.3     1  UNL1        0.0690
      5 N         139.7710  145.5898  163.4637 N.3     1  UNL1       -0.2974
      6 C         139.1407  144.6964  164.4906 C.3     1  UNL1        0.0690
      7 C         139.9610  143.6410  165.1713 C.3     1  UNL1        0.0236
      8 H         139.2457  145.4607  162.5989 H       1  UNL1        0.1232
      9 C         141.2676  142.3990  165.8561 C.ar    1  UNL1       -0.0204
     10 C         142.3275  142.2140  166.9013 C.ar    1  UNL1       -0.0042
     11 C         142.1836  141.1340  167.9323 C.ar    1  UNL1       -0.0003
     12 C         140.9799  140.2392  167.9182 C.ar    1  UNL1       -0.0000
     13 C         139.9200  140.4242  166.8730 C.ar    1  UNL1       -0.0003
     14 C         140.0639  141.5042  165.8420 C.ar    1  UNL1       -0.0042
     15 O         143.5476  142.7370  163.5458 O.3     1  UNL1       -0.3487
     16 C         143.6269  141.3684  162.9369 C.3     1  UNL1        0.1686
     17 C         141.1977  138.4147  163.9973 C.ar    1  UNL1        0.0720
     18 C         141.9570  137.8222  165.1472 C.ar    1  UNL1        0.0152
     19 C         143.2730  138.4117  165.5604 C.ar    1  UNL1        0.0574
     20 CL        144.0323  137.8191  166.7103 Cl      1  UNL1       -0.0823
     21 C         143.8296  139.5938  164.8236 C.ar    1  UNL1        0.0095
     22 C         143.0703  140.1863  163.6737 C.ar    1  UNL1        0.0081
     23 C         141.7543  139.5968  163.2606 C.ar    1  UNL1        0.0021
     24 F         138.5657  137.2357  163.1711 F       1  UNL1       -0.1659
     25 C         139.8817  137.8252  163.5842 C.3     1  UNL1        0.4186
     26 F         139.7064  137.2527  164.9595 F       1  UNL1       -0.1659
     27 F         140.0570  138.3978  162.2089 F       1  UNL1       -0.1659
@<TRIPOS>BOND
     1    24    25    1
     2    25    26    1
     3    25    27    1
     4    25    17    1
     5    17    18   ar
     6    18    19   ar
     7    19    20    1
     8    19    21   ar
     9    21    22   ar
    10    22    16    1
    11    16    15    1
    12    15     1    1
    13     1     2    1
    14     2     9    1
    15     9    10   ar
    16    10    11   ar
    17    11    12   ar
    18    12    13   ar
    19    13    14   ar
    20     2     3    1
    21     3     4    1
    22     4     5    1
    23     5     6    1
    24     6     7    1
    25    22    23   ar
    26    23    17   ar
    27     7     2    1
    28    14     9   ar
    29     5     8    1
@<TRIPOS>MOLECULE
*****
 27 29 0 0 0
SMALL
GASTEIGER

@<TRIPOS>ATOM
      1 C         143.2271  141.9442  165.6401 C.3     1  UNL1        0.1466
      2 C         143.1177  142.3612  164.2034 C.3     1  UNL1        0.0489
      3 C         143.6004  143.6447  164.8111 C.3     1  UNL1        0.0236
      4 C         143.8193  144.8492  163.9444 C.3     1  UNL1        0.0690
      5 N         143.5553  144.7701  162.4699 N.3     1  UNL1       -0.2974
      6 C         143.0726  143.4866  161.8622 C.3     1  UNL1        0.0690
      7 C         142.8537  142.2821  162.7289 C.3     1  UNL1        0.0236
      8 H         144.4296  145.0073  162.0011 H       1  UNL1        0.1232
      9 C         142.6729  140.9327  164.0947 C.ar    1  UNL1       -0.0204
     10 C         141.5977  140.5542  163.1197 C.ar    1  UNL1       -0.0042
     11 C         141.1529  139.1257  163.0109 C.ar    1  UNL1       -0.0003
     12 C         141.7834  138.0759  163.8771 C.ar    1  UNL1       -0.0000
     13 C         142.8587  138.4545  164.8521 C.ar    1  UNL1       -0.0003
     14 C         143.3034  139.8829  164.9608 C.ar    1  UNL1       -0.0042
     15 O         142.5333  142.7388  166.7066 O.3     1  UNL1       -0.3487
     16 C         141.3172  142.1817  167.3854 C.3     1  UNL1        0.1686
     17 C         138.6234  139.6051  166.0236 C.ar    1  UNL1        0.0720
     18 C         137.9837  140.4132  164.9337 C.ar    1  UNL1        0.0152
     19 C         138.4552  141.8108  164.6611 C.ar    1  UNL1        0.0574
     20 CL        137.8155  142.6190  163.5712 Cl      1  UNL1       -0.0823
     21 C         139.5664  142.4003  165.4783 C.ar    1  UNL1        0.0095
     22 C         140.2060  141.5922  166.5681 C.ar    1  UNL1        0.0081
     23 C         139.7345  140.1946  166.8407 C.ar    1  UNL1        0.0021
     24 F         137.6804  136.8098  166.5688 F       1  UNL1       -0.1659
     25 C         138.1519  138.2074  166.2962 C.3     1  UNL1        0.4186
     26 F         138.7896  137.7434  165.0203 F       1  UNL1       -0.1659
     27 F         137.5142  138.6715  167.5721 F       1  UNL1       -0.1659
@<TRIPOS>BOND
     1    24    25    1
     2    25    26    1
     3    25    27    1
     4    25    17    1
     5    17    18   ar
     6    18    19   ar
     7    19    20    1
     8    19    21   ar
     9    21    22   ar
    10    22    16    1
    11    16    15    1
    12    15     1    1
    13     1     2    1
    14     2     9    1
    15     9    10   ar
    16    10    11   ar
    17    11    12   ar
    18    12    13   ar
    19    13    14   ar
    20     2     3    1
    21     3     4    1
    22     4     5    1
    23     5     6    1
    24     6     7    1
    25    22    23   ar
    26    23    17   ar
    27     7     2    1
    28    14     9   ar
    29     5     8    1
@<TRIPOS>MOLECULE
*****
 27 29 0 0 0
SMALL
GASTEIGER

@<TRIPOS>ATOM
      1 C         140.1215  143.3491  165.2256 C.3     1  UNL1        0.1466
      2 C         141.6176  143.3271  165.1210 C.3     1  UNL1        0.0489
      3 C         141.3074  144.4543  164.1813 C.3     1  UNL1        0.0236
      4 C         142.4205  145.1707  163.4759 C.3     1  UNL1        0.0690
      5 N         143.8441  144.7598  163.7103 N.3     1  UNL1       -0.2974
      6 C         144.1543  143.6327  164.6500 C.3     1  UNL1        0.0690
      7 C         143.0411  142.9163  165.3554 C.3     1  UNL1        0.0236
      8 H         144.3332  145.5818  164.0646 H       1  UNL1        0.1232
      9 C         141.4083  142.2076  166.0971 C.ar    1  UNL1       -0.0204
     10 C         140.4609  142.3823  167.2469 C.ar    1  UNL1       -0.0042
     11 C         140.2515  141.2627  168.2230 C.ar    1  UNL1       -0.0003
     12 C         140.9895  139.9685  168.0494 C.ar    1  UNL1       -0.0000
     13 C         141.9370  139.7938  166.8996 C.ar    1  UNL1       -0.0003
     14 C         142.1463  140.9133  165.9235 C.ar    1  UNL1       -0.0042
     15 O         139.2827  143.3575  163.9820 O.3     1  UNL1       -0.3487
     16 C         138.3140  142.2420  163.7232 C.3     1  UNL1        0.1686
     17 C         139.9744  138.6379  163.7868 C.ar    1  UNL1        0.0720
     18 C         139.3208  138.0461  165.0002 C.ar    1  UNL1        0.0152
     19 C         138.3315  138.8529  165.7880 C.ar    1  UNL1        0.0574
     20 CL        137.6779  138.2610  167.0015 Cl      1  UNL1       -0.0823
     21 C         137.9959  140.2515  165.3623 C.ar    1  UNL1        0.0095
     22 C         138.6496  140.8433  164.1489 C.ar    1  UNL1        0.0081
     23 C         139.6388  140.0365  163.3611 C.ar    1  UNL1        0.0021
     24 F         141.9528  137.0244  162.2113 F       1  UNL1       -0.1659
     25 C         140.9636  137.8312  162.9991 C.3     1  UNL1        0.4186
     26 F         141.9070  137.8494  164.1651 F       1  UNL1       -0.1659
     27 F         140.0202  137.8130  161.8330 F       1  UNL1       -0.1659
@<TRIPOS>BOND
     1    24    25    1
     2    25    26    1
     3    25    27    1
     4    25    17    1
     5    17    18   ar
     6    18    19   ar
     7    19    20    1
     8    19    21   ar
     9    21    22   ar
    10    22    16    1
    11    16    15    1
    12    15     1    1
    13     1     2    1
    14     2     9    1
    15     9    10   ar
    16    10    11   ar
    17    11    12   ar
    18    12    13   ar
    19    13    14   ar
    20     2     3    1
    21     3     4    1
    22     4     5    1
    23     5     6    1
    24     6     7    1
    25    22    23   ar
    26    23    17   ar
    27     7     2    1
    28    14     9   ar
    29     5     8    1
@<TRIPOS>MOLECULE
*****
 27 29 0 0 0
SMALL
GASTEIGER

@<TRIPOS>ATOM
      1 C         142.4868  140.5185  166.2925 C.3     1  UNL1        0.1466
      2 C         141.6871  140.6068  167.5584 C.3     1  UNL1        0.0489
      3 C         142.9105  141.3712  167.9694 C.3     1  UNL1        0.0236
      4 C         143.0057  141.9478  169.3509 C.3     1  UNL1        0.0690
      5 N         141.8774  141.7599  170.3214 N.3     1  UNL1       -0.2974
      6 C         140.6540  140.9956  169.9104 C.3     1  UNL1        0.0690
      7 C         140.5588  140.4190  168.5289 C.3     1  UNL1        0.0236
      8 H         141.5648  142.6920  170.5933 H       1  UNL1        0.1232
      9 C         140.7414  139.8117  166.7078 C.ar    1  UNL1       -0.0204
     10 C         139.2613  140.0175  166.8384 C.ar    1  UNL1       -0.0042
     11 C         138.3156  139.2224  165.9877 C.ar    1  UNL1       -0.0003
     12 C         138.8500  138.2216  165.0065 C.ar    1  UNL1       -0.0000
     13 C         140.3301  138.0158  164.8759 C.ar    1  UNL1       -0.0003
     14 C         141.2757  138.8109  165.7266 C.ar    1  UNL1       -0.0042
     15 O         143.1776  141.7369  165.7552 O.3     1  UNL1       -0.3487
     16 C         142.6008  142.4690  164.5800 C.3     1  UNL1        0.1686
     17 C         138.8265  141.8792  163.5044 C.ar    1  UNL1        0.0720
     18 C         138.1466  143.0038  164.2276 C.ar    1  UNL1        0.0152
     19 C         138.9514  143.9501  165.0683 C.ar    1  UNL1        0.0574
     20 CL        138.2714  145.0747  165.7915 Cl      1  UNL1       -0.0823
     21 C         140.4361  143.7718  165.1858 C.ar    1  UNL1        0.0095
     22 C         141.1160  142.6473  164.4625 C.ar    1  UNL1        0.0081
     23 C         140.3112  141.7010  163.6218 C.ar    1  UNL1        0.0021
     24 F         137.2169  139.9866  161.8230 F       1  UNL1       -0.1659
     25 C         138.0217  140.9329  162.6637 C.3     1  UNL1        0.4186
     26 F         139.2780  140.2142  162.2699 F       1  UNL1       -0.1659
     27 F         136.7653  141.6516  163.0574 F       1  UNL1       -0.1659
@<TRIPOS>BOND
     1    24    25    1
     2    25    26    1
     3    25    27    1
     4    25    17    1
     5    17    18   ar
     6    18    19   ar
     7    19    20    1
     8    19    21   ar
     9    21    22   ar
    10    22    16    1
    11    16    15    1
    12    15     1    1
    13     1     2    1
    14     2     9    1
    15     9    10   ar
    16    10    11   ar
    17    11    12   ar
    18    12    13   ar
    19    13    14   ar
    20     2     3    1
    21     3     4    1
    22     4     5    1
    23     5     6    1
    24     6     7    1
    25    22    23   ar
    26    23    17   ar
    27     7     2    1
    28    14     9   ar
    29     5     8    1
