@<TRIPOS>MOLECULE
*****
 37 41 0 0 0
SMALL
GASTEIGER

@<TRIPOS>ATOM
      1 C         141.9370  138.9885  160.1743 C.3     1  UNL1        0.0758
      2 C         142.4295  138.0413  161.2280 C.3     1  UNL1        0.0370
      3 C         141.5056  137.5866  162.3187 C.3     1  UNL1        0.0741
      4 N         140.0892  138.0790  162.3557 N.3     1  UNL1       -0.2688
      5 C         139.5967  139.0262  161.3020 C.3     1  UNL1        0.0741
      6 C         140.5206  139.4810  160.2113 C.3     1  UNL1        0.0370
      7 O         143.4121  141.5869  160.4442 O.2     1  UNL1       -0.2526
      8 C         143.5984  140.7425  159.2186 C.2     1  UNL1        0.3040
      9 N         142.8609  139.4432  159.0836 N.am    1  UNL1       -0.2903
     10 N         144.5223  141.1972  158.1279 N.am    1  UNL1       -0.2614
     11 C         145.4006  142.3939  157.9121 C.3     1  UNL1        0.1126
     12 C         145.8289  141.8403  156.5854 C.3     1  UNL1        0.0976
     13 C         144.9506  140.6435  156.8011 C.3     1  UNL1        0.1126
     14 H         142.9832  138.8890  158.2792 H       1  UNL1        0.1509
     15 N         146.7528  142.2951  155.4947 N.3     1  UNL1       -0.2688
     16 C         148.1579  141.7758  155.5735 C.3     1  UNL1        0.0748
     17 C         149.3068  142.0423  154.6465 C.3     1  UNL1        0.0494
     18 C         149.3342  142.8936  153.4119 C.3     1  UNL1        0.1437
     19 O         148.2197  143.6889  152.7993 O.3     1  UNL1       -0.3522
     20 C         146.8024  143.8292  153.2700 C.3     1  UNL1        0.1594
     21 C         146.1496  143.2088  154.4696 C.3     1  UNL1        0.1046
     22 C         139.1653  137.6243  163.4464 C.3     1  UNL1        0.1007
     23 C         139.2017  138.2943  164.7880 C.ar    1  UNL1        0.0129
     24 C         138.1309  138.2274  165.8363 C.ar    1  UNL1        0.0176
     25 C         138.5827  139.0406  167.0129 C.ar    1  UNL1        0.0799
     26 N         139.9327  139.6101  166.6919 N.ar    1  UNL1       -0.3038
     27 C         140.3153  139.1489  165.3167 C.ar    1  UNL1        0.0772
     28 C         140.7557  140.4868  167.5885 C.ar    1  UNL1        0.0640
     29 C         142.0010  139.9477  168.2276 C.ar    1  UNL1        0.0175
     30 C         142.8240  140.8244  169.1241 C.ar    1  UNL1        0.0053
     31 C         142.4016  142.2406  169.3817 C.ar    1  UNL1        0.0715
     32 C         141.1563  142.7797  168.7427 C.ar    1  UNL1        0.0053
     33 C         140.3333  141.9030  167.8461 C.ar    1  UNL1        0.0175
     34 C         143.2246  143.1173  170.2783 C.3     1  UNL1        0.4186
     35 F         144.0477  143.9941  171.1749 F       1  UNL1       -0.1659
     36 F         142.0380  144.0087  170.4959 F       1  UNL1       -0.1659
     37 F         144.4112  142.2260  170.0607 F       1  UNL1       -0.1659
@<TRIPOS>BOND
     1     7     8    2
     2     8     9   am
     3     9     1    1
     4     1     2    1
     5     2     3    1
     6     3     4    1
     7     4    22    1
     8    22    23    1
     9    23    24   ar
    10    24    25   ar
    11    25    26   ar
    12    26    28    1
    13    28    29   ar
    14    29    30   ar
    15    30    31   ar
    16    31    34    1
    17    34    35    1
    18    34    36    1
    19    34    37    1
    20    31    32   ar
    21    32    33   ar
    22    26    27   ar
    23     4     5    1
    24     5     6    1
    25     8    10   am
    26    10    11    1
    27    11    12    1
    28    12    15    1
    29    15    16    1
    30    16    17    1
    31    17    18    1
    32    18    19    1
    33    19    20    1
    34    20    21    1
    35    12    13    1
    36     6     1    1
    37    13    10    1
    38    27    23   ar
    39    21    15    1
    40    33    28   ar
    41     9    14    1
@<TRIPOS>MOLECULE
*****
 37 41 0 0 0
SMALL
GASTEIGER

@<TRIPOS>ATOM
      1 C         142.1741  139.5522  159.3131 C.3     1  UNL1        0.0758
      2 C         142.4387  138.4605  160.3072 C.3     1  UNL1        0.0370
      3 C         141.3756  138.0667  161.2894 C.3     1  UNL1        0.0741
      4 N         140.0479  138.7646  161.2774 N.3     1  UNL1       -0.2688
      5 C         139.7832  139.8563  160.2833 C.3     1  UNL1        0.0741
      6 C         140.8463  140.2501  159.3012 C.3     1  UNL1        0.0370
      7 O         143.9513  141.9000  159.8874 O.2     1  UNL1       -0.2526
      8 C         144.1258  141.1199  158.6181 C.2     1  UNL1        0.3040
      9 N         143.2372  139.9460  158.3309 N.am    1  UNL1       -0.2903
     10 N         145.1890  141.5137  157.6359 N.am    1  UNL1       -0.2614
     11 C         146.2322  142.5899  157.5768 C.3     1  UNL1        0.1126
     12 C         146.6924  142.0707  156.2469 C.3     1  UNL1        0.0976
     13 C         145.6492  140.9945  156.3059 C.3     1  UNL1        0.1126
     14 H         143.3518  139.4341  157.4979 H       1  UNL1        0.1509
     15 N         147.7556  142.4645  155.2648 N.3     1  UNL1       -0.2688
     16 C         149.0697  141.7557  155.4091 C.3     1  UNL1        0.0748
     17 C         150.3169  141.9224  154.5925 C.3     1  UNL1        0.0494
     18 C         150.5580  142.8390  153.4300 C.3     1  UNL1        0.1437
     19 O         149.6115  143.8154  152.7968 O.3     1  UNL1       -0.3522
     20 C         148.1901  144.1163  153.1699 C.3     1  UNL1        0.1594
     21 C         147.3642  143.5150  154.2683 C.3     1  UNL1        0.1046
     22 C         138.9847  138.3708  162.2596 C.3     1  UNL1        0.1007
     23 C         139.2097  138.5715  163.7290 C.ar    1  UNL1        0.0129
     24 C         138.6303  137.7360  164.8319 C.ar    1  UNL1        0.0176
     25 C         139.1161  138.2911  166.1379 C.ar    1  UNL1        0.0799
     26 N         139.9957  139.4696  165.8423 N.ar    1  UNL1       -0.3038
     27 C         140.0536  139.6429  164.3534 C.ar    1  UNL1        0.0772
     28 C         140.6947  140.3247  166.8573 C.ar    1  UNL1        0.0640
     29 C         140.2751  141.7515  167.0528 C.ar    1  UNL1        0.0175
     30 C         140.9742  142.6066  168.0677 C.ar    1  UNL1        0.0053
     31 C         142.0929  142.0348  168.8872 C.ar    1  UNL1        0.0715
     32 C         142.5125  140.6081  168.6917 C.ar    1  UNL1        0.0053
     33 C         141.8135  139.7530  167.6768 C.ar    1  UNL1        0.0175
     34 C         142.7920  142.8899  169.9021 C.3     1  UNL1        0.4186
     35 F         143.4910  143.7451  170.9171 F       1  UNL1       -0.1659
     36 F         144.0365  142.0690  169.7366 F       1  UNL1       -0.1659
     37 F         141.5475  143.7108  170.0676 F       1  UNL1       -0.1659
@<TRIPOS>BOND
     1     7     8    2
     2     8     9   am
     3     9     1    1
     4     1     2    1
     5     2     3    1
     6     3     4    1
     7     4    22    1
     8    22    23    1
     9    23    24   ar
    10    24    25   ar
    11    25    26   ar
    12    26    28    1
    13    28    29   ar
    14    29    30   ar
    15    30    31   ar
    16    31    34    1
    17    34    35    1
    18    34    36    1
    19    34    37    1
    20    31    32   ar
    21    32    33   ar
    22    26    27   ar
    23     4     5    1
    24     5     6    1
    25     8    10   am
    26    10    11    1
    27    11    12    1
    28    12    15    1
    29    15    16    1
    30    16    17    1
    31    17    18    1
    32    18    19    1
    33    19    20    1
    34    20    21    1
    35    12    13    1
    36     6     1    1
    37    13    10    1
    38    27    23   ar
    39    21    15    1
    40    33    28   ar
    41     9    14    1
@<TRIPOS>MOLECULE
*****
 37 41 0 0 0
SMALL
GASTEIGER

@<TRIPOS>ATOM
      1 C         142.0675  139.8472  160.6931 C.3     1  UNL1        0.0758
      2 C         141.0417  138.9038  160.1383 C.3     1  UNL1        0.0370
      3 C         141.1856  138.3763  158.7415 C.3     1  UNL1        0.0741
      4 N         142.3553  138.7920  157.8996 N.3     1  UNL1       -0.2688
      5 C         143.3812  139.7354  158.4544 C.3     1  UNL1        0.0741
      6 C         143.2373  140.2630  159.8511 C.3     1  UNL1        0.0370
      7 O         142.6007  138.0521  163.0369 O.2     1  UNL1       -0.2526
      8 C         142.1902  139.4772  163.2618 C.2     1  UNL1        0.3040
      9 N         141.9236  140.3748  162.0898 N.am    1  UNL1       -0.2903
     10 N         142.0463  140.0049  164.6585 N.am    1  UNL1       -0.2614
     11 C         142.2209  139.4297  166.0328 C.3     1  UNL1        0.1126
     12 C         141.8428  140.7510  166.6338 C.3     1  UNL1        0.0976
     13 C         141.6681  141.3262  165.2595 C.3     1  UNL1        0.1126
     14 H         141.6542  141.3102  162.2374 H       1  UNL1        0.1509
     15 N         141.6989  141.2786  168.0306 N.3     1  UNL1       -0.2688
     16 C         140.3501  141.0932  168.6605 C.3     1  UNL1        0.0748
     17 C         139.8921  141.5052  170.0282 C.3     1  UNL1        0.0494
     18 C         140.6696  142.2042  171.1037 C.3     1  UNL1        0.1437
     19 O         142.0972  142.6640  171.0772 O.3     1  UNL1       -0.3522
     20 C         143.0998  142.5382  169.9687 C.3     1  UNL1        0.1594
     21 C         142.9225  141.9216  168.6128 C.3     1  UNL1        0.1046
     22 C         142.4993  138.2645  156.5028 C.3     1  UNL1        0.1007
     23 C         142.3657  136.7938  156.2391 C.ar    1  UNL1        0.0129
     24 C         141.4369  136.1565  155.2486 C.ar    1  UNL1        0.0176
     25 C         141.6346  134.6712  155.3170 C.ar    1  UNL1        0.0799
     26 N         142.6855  134.3905  156.3497 N.ar    1  UNL1       -0.3038
     27 C         143.1375  135.7024  156.9197 C.ar    1  UNL1        0.0772
     28 C         143.1952  133.0358  156.7434 C.ar    1  UNL1        0.0640
     29 C         142.4823  131.8013  156.2766 C.ar    1  UNL1        0.0175
     30 C         142.9920  130.4467  156.6704 C.ar    1  UNL1        0.0053
     31 C         144.2147  130.3265  157.5310 C.ar    1  UNL1        0.0715
     32 C         144.9276  131.5609  157.9978 C.ar    1  UNL1        0.0053
     33 C         144.4179  132.9155  157.6041 C.ar    1  UNL1        0.0175
     34 C         144.7244  128.9718  157.9248 C.3     1  UNL1        0.4186
     35 F         145.2341  127.6171  158.3185 F       1  UNL1       -0.1659
     36 F         144.3377  129.2402  159.3490 F       1  UNL1       -0.1659
     37 F         145.1111  128.7034  156.5006 F       1  UNL1       -0.1659
@<TRIPOS>BOND
     1     7     8    2
     2     8     9   am
     3     9     1    1
     4     1     2    1
     5     2     3    1
     6     3     4    1
     7     4    22    1
     8    22    23    1
     9    23    24   ar
    10    24    25   ar
    11    25    26   ar
    12    26    28    1
    13    28    29   ar
    14    29    30   ar
    15    30    31   ar
    16    31    34    1
    17    34    35    1
    18    34    36    1
    19    34    37    1
    20    31    32   ar
    21    32    33   ar
    22    26    27   ar
    23     4     5    1
    24     5     6    1
    25     8    10   am
    26    10    11    1
    27    11    12    1
    28    12    15    1
    29    15    16    1
    30    16    17    1
    31    17    18    1
    32    18    19    1
    33    19    20    1
    34    20    21    1
    35    12    13    1
    36     6     1    1
    37    13    10    1
    38    27    23   ar
    39    21    15    1
    40    33    28   ar
    41     9    14    1
@<TRIPOS>MOLECULE
*****
 37 41 0 0 0
SMALL
GASTEIGER

@<TRIPOS>ATOM
      1 C         139.5765  141.6937  160.4570 C.3     1  UNL1        0.0758
      2 C         138.9814  142.8941  159.7824 C.3     1  UNL1        0.0370
      3 C         138.5764  142.8200  158.3400 C.3     1  UNL1        0.0741
      4 N         138.7665  141.5456  157.5722 N.3     1  UNL1       -0.2688
      5 C         139.3617  140.3452  158.2467 C.3     1  UNL1        0.0741
      6 C         139.7666  140.4192  159.6890 C.3     1  UNL1        0.0370
      7 O         137.7520  140.6231  162.5841 O.2     1  UNL1       -0.2526
      8 C         139.0692  141.2324  162.9629 C.2     1  UNL1        0.3040
      9 N         139.9815  141.7678  161.8993 N.am    1  UNL1       -0.2903
     10 N         139.4742  141.3065  164.4053 N.am    1  UNL1       -0.2614
     11 C         138.8504  140.8916  165.7048 C.3     1  UNL1        0.1126
     12 C         140.0470  141.4113  166.4451 C.3     1  UNL1        0.0976
     13 C         140.6709  141.8263  165.1456 C.3     1  UNL1        0.1126
     14 H         140.8461  142.1678  162.1479 H       1  UNL1        0.1509
     15 N         140.4519  141.4853  167.8875 N.3     1  UNL1       -0.2688
     16 C         140.6782  140.1679  168.5684 C.3     1  UNL1        0.0748
     17 C         141.0854  139.9068  169.9883 C.3     1  UNL1        0.0494
     18 C         141.3670  140.8984  171.0778 C.3     1  UNL1        0.1437
     19 O         141.3109  142.3961  171.0169 O.3     1  UNL1       -0.3522
     20 C         140.9594  143.2721  169.8511 C.3     1  UNL1        0.1594
     21 C         140.5771  142.8667  168.4584 C.3     1  UNL1        0.1046
     22 C         138.3616  141.4715  156.1297 C.3     1  UNL1        0.1007
     23 C         136.9300  141.2111  155.7652 C.ar    1  UNL1        0.0129
     24 C         136.3064  141.4427  154.4207 C.ar    1  UNL1        0.0176
     25 C         134.8618  141.0481  154.5056 C.ar    1  UNL1        0.0799
     26 N         134.5924  140.5728  155.9025 N.ar    1  UNL1       -0.3038
     27 C         135.8707  140.6735  156.6811 C.ar    1  UNL1        0.0772
     28 C         133.2760  140.0828  156.4287 C.ar    1  UNL1        0.0640
     29 C         133.2337  138.9303  157.3880 C.ar    1  UNL1        0.0175
     30 C         131.9173  138.4403  157.9142 C.ar    1  UNL1        0.0053
     31 C         130.6430  139.1028  157.4810 C.ar    1  UNL1        0.0715
     32 C         130.6853  140.2551  156.5218 C.ar    1  UNL1        0.0053
     33 C         132.0017  140.7452  155.9957 C.ar    1  UNL1        0.0175
     34 C         129.3267  138.6127  158.0072 C.3     1  UNL1        0.4186
     35 F         128.0102  138.1226  158.5334 F       1  UNL1       -0.1659
     36 F         129.1369  139.9082  158.7392 F       1  UNL1       -0.1659
     37 F         129.5164  137.3173  157.2753 F       1  UNL1       -0.1659
@<TRIPOS>BOND
     1     7     8    2
     2     8     9   am
     3     9     1    1
     4     1     2    1
     5     2     3    1
     6     3     4    1
     7     4    22    1
     8    22    23    1
     9    23    24   ar
    10    24    25   ar
    11    25    26   ar
    12    26    28    1
    13    28    29   ar
    14    29    30   ar
    15    30    31   ar
    16    31    34    1
    17    34    35    1
    18    34    36    1
    19    34    37    1
    20    31    32   ar
    21    32    33   ar
    22    26    27   ar
    23     4     5    1
    24     5     6    1
    25     8    10   am
    26    10    11    1
    27    11    12    1
    28    12    15    1
    29    15    16    1
    30    16    17    1
    31    17    18    1
    32    18    19    1
    33    19    20    1
    34    20    21    1
    35    12    13    1
    36     6     1    1
    37    13    10    1
    38    27    23   ar
    39    21    15    1
    40    33    28   ar
    41     9    14    1
@<TRIPOS>MOLECULE
*****
 37 41 0 0 0
SMALL
GASTEIGER

@<TRIPOS>ATOM
      1 C         139.6069  143.2045  160.9833 C.3     1  UNL1        0.0758
      2 C         140.5533  144.0754  160.2113 C.3     1  UNL1        0.0370
      3 C         140.4335  144.1752  158.7195 C.3     1  UNL1        0.0741
      4 N         139.3671  143.4042  157.9995 N.3     1  UNL1       -0.2688
      5 C         138.4206  142.5333  158.7714 C.3     1  UNL1        0.0741
      6 C         138.5405  142.4334  160.2632 C.3     1  UNL1        0.0370
      7 O         141.3846  141.1219  162.2091 O.2     1  UNL1       -0.2526
      8 C         140.6157  142.0633  163.0880 C.2     1  UNL1        0.3040
      9 N         139.7268  143.1047  162.4751 N.am    1  UNL1       -0.2903
     10 N         140.7355  141.9635  164.5799 N.am    1  UNL1       -0.2614
     11 C         141.4971  141.0835  165.5262 C.3     1  UNL1        0.1126
     12 C         140.9051  141.8224  166.6897 C.3     1  UNL1        0.0976
     13 C         140.1435  142.7024  165.7434 C.3     1  UNL1        0.1126
     14 H         139.2221  143.7225  163.0519 H       1  UNL1        0.1509
     15 N         141.0250  141.7224  168.1816 N.3     1  UNL1       -0.2688
     16 C         140.2331  140.6234  168.8259 C.3     1  UNL1        0.0748
     17 C         140.1416  140.2652  170.2797 C.3     1  UNL1        0.0494
     18 C         140.8193  140.9176  171.4480 C.3     1  UNL1        0.1437
     19 O         141.7559  142.0892  171.4513 O.3     1  UNL1       -0.3522
     20 C         142.2462  142.8979  170.2870 C.3     1  UNL1        0.1594
     21 C         141.9208  142.7346  168.8318 C.3     1  UNL1        0.1046
     22 C         139.2472  143.5040  156.5076 C.3     1  UNL1        0.1007
     23 C         139.6820  144.7545  155.8023 C.ar    1  UNL1        0.0129
     24 C         140.8605  144.8840  154.8834 C.ar    1  UNL1        0.0176
     25 C         140.9214  146.3044  154.4052 C.ar    1  UNL1        0.0799
     26 N         139.7807  147.0527  155.0286 N.ar    1  UNL1       -0.3038
     27 C         139.0146  146.0948  155.8921 C.ar    1  UNL1        0.0772
     28 C         139.4619  148.5041  154.8244 C.ar    1  UNL1        0.0640
     29 C         138.7547  149.2752  155.8993 C.ar    1  UNL1        0.0175
     30 C         138.4359  150.7266  155.6951 C.ar    1  UNL1        0.0053
     31 C         138.8243  151.4071  154.4159 C.ar    1  UNL1        0.0715
     32 C         139.5315  150.6360  153.3411 C.ar    1  UNL1        0.0053
     33 C         139.8503  149.1846  153.5453 C.ar    1  UNL1        0.0175
     34 C         138.5055  152.8585  154.2117 C.3     1  UNL1        0.4186
     35 F         138.1867  154.3099  154.0076 F       1  UNL1       -0.1659
     36 F         138.5320  152.6553  152.7258 F       1  UNL1       -0.1659
     37 F         138.4790  153.0617  155.6976 F       1  UNL1       -0.1659
@<TRIPOS>BOND
     1     7     8    2
     2     8     9   am
     3     9     1    1
     4     1     2    1
     5     2     3    1
     6     3     4    1
     7     4    22    1
     8    22    23    1
     9    23    24   ar
    10    24    25   ar
    11    25    26   ar
    12    26    28    1
    13    28    29   ar
    14    29    30   ar
    15    30    31   ar
    16    31    34    1
    17    34    35    1
    18    34    36    1
    19    34    37    1
    20    31    32   ar
    21    32    33   ar
    22    26    27   ar
    23     4     5    1
    24     5     6    1
    25     8    10   am
    26    10    11    1
    27    11    12    1
    28    12    15    1
    29    15    16    1
    30    16    17    1
    31    17    18    1
    32    18    19    1
    33    19    20    1
    34    20    21    1
    35    12    13    1
    36     6     1    1
    37    13    10    1
    38    27    23   ar
    39    21    15    1
    40    33    28   ar
    41     9    14    1
@<TRIPOS>MOLECULE
*****
 37 41 0 0 0
SMALL
GASTEIGER

@<TRIPOS>ATOM
      1 C         142.8605  139.9279  158.5036 C.3     1  UNL1        0.0758
      2 C         141.5752  140.7002  158.5432 C.3     1  UNL1        0.0370
      3 C         141.4585  141.9184  159.4106 C.3     1  UNL1        0.0741
      4 N         142.6272  142.3643  160.2385 N.3     1  UNL1       -0.2688
      5 C         143.9125  141.5920  160.1990 C.3     1  UNL1        0.0741
      6 C         144.0292  140.3738  159.3316 C.3     1  UNL1        0.0370
      7 O         142.8616  137.1969  159.7454 O.2     1  UNL1       -0.2526
      8 C         142.9777  137.3442  158.2572 C.2     1  UNL1        0.3040
      9 N         142.9771  138.7097  157.6363 N.am    1  UNL1       -0.2903
     10 N         143.0943  136.1260  157.3897 N.am    1  UNL1       -0.2614
     11 C         143.1296  134.6470  157.6374 C.3     1  UNL1        0.1126
     12 C         143.2592  134.4032  156.1630 C.3     1  UNL1        0.0976
     13 C         143.2239  135.8823  155.9153 C.3     1  UNL1        0.1126
     14 H         143.0533  138.8064  156.6595 H       1  UNL1        0.1509
     15 N         143.3759  133.1850  155.2956 N.3     1  UNL1       -0.2688
     16 C         144.2588  132.0929  155.8229 C.3     1  UNL1        0.0748
     17 C         144.5780  130.7659  155.2005 C.3     1  UNL1        0.0494
     18 C         144.0934  130.2035  153.8972 C.3     1  UNL1        0.1437
     19 O         143.1697  130.8289  152.8944 O.3     1  UNL1       -0.3522
     20 C         142.5025  132.1713  152.9472 C.3     1  UNL1        0.1594
     21 C         142.5944  133.2199  154.0159 C.3     1  UNL1        0.1046
     22 C         142.5106  143.5825  161.1059 C.3     1  UNL1        0.1007
     23 C         142.6996  143.4676  162.5896 C.ar    1  UNL1        0.0129
     24 C         143.7616  144.1514  163.3987 C.ar    1  UNL1        0.0176
     25 C         143.5781  143.7551  164.8336 C.ar    1  UNL1        0.0799
     26 N         142.4028  142.8264  164.9115 N.ar    1  UNL1       -0.3038
     27 C         141.8598  142.6487  163.5245 C.ar    1  UNL1        0.0772
     28 C         141.8648  142.1876  166.1574 C.ar    1  UNL1        0.0640
     29 C         142.6814  142.1926  167.4157 C.ar    1  UNL1        0.0175
     30 C         142.1434  141.5538  168.6616 C.ar    1  UNL1        0.0053
     31 C         140.7887  140.9099  168.6493 C.ar    1  UNL1        0.0715
     32 C         139.9721  140.9048  167.3912 C.ar    1  UNL1        0.0053
     33 C         140.5101  141.5437  166.1453 C.ar    1  UNL1        0.0175
     34 C         140.2507  140.2710  169.8953 C.3     1  UNL1        0.4186
     35 F         139.7127  139.6321  171.1413 F       1  UNL1       -0.1659
     36 F         139.1490  141.2880  169.9411 F       1  UNL1       -0.1659
     37 F         141.3523  139.2541  169.8495 F       1  UNL1       -0.1659
@<TRIPOS>BOND
     1     7     8    2
     2     8     9   am
     3     9     1    1
     4     1     2    1
     5     2     3    1
     6     3     4    1
     7     4    22    1
     8    22    23    1
     9    23    24   ar
    10    24    25   ar
    11    25    26   ar
    12    26    28    1
    13    28    29   ar
    14    29    30   ar
    15    30    31   ar
    16    31    34    1
    17    34    35    1
    18    34    36    1
    19    34    37    1
    20    31    32   ar
    21    32    33   ar
    22    26    27   ar
    23     4     5    1
    24     5     6    1
    25     8    10   am
    26    10    11    1
    27    11    12    1
    28    12    15    1
    29    15    16    1
    30    16    17    1
    31    17    18    1
    32    18    19    1
    33    19    20    1
    34    20    21    1
    35    12    13    1
    36     6     1    1
    37    13    10    1
    38    27    23   ar
    39    21    15    1
    40    33    28   ar
    41     9    14    1
@<TRIPOS>MOLECULE
*****
 37 41 0 0 0
SMALL
GASTEIGER

@<TRIPOS>ATOM
      1 C         141.7232  142.2387  160.8001 C.3     1  UNL1        0.0758
      2 C         140.6028  141.6876  159.9688 C.3     1  UNL1        0.0370
      3 C         140.5981  141.8962  158.4834 C.3     1  UNL1        0.0741
      4 N         141.7139  142.6560  157.8293 N.3     1  UNL1       -0.2688
      5 C         142.8343  143.2071  158.6605 C.3     1  UNL1        0.0741
      6 C         142.8390  142.9985  160.1459 C.3     1  UNL1        0.0370
      7 O         139.4778  143.3155  162.4731 O.2     1  UNL1       -0.2526
      8 C         140.6051  142.5685  163.1220 C.2     1  UNL1        0.3040
      9 N         141.7279  142.0301  162.2855 N.am    1  UNL1       -0.2903
     10 N         140.6099  142.3598  164.6074 N.am    1  UNL1       -0.2614
     11 C         139.6946  142.7371  165.7343 C.3     1  UNL1        0.1126
     12 C         140.6165  142.0648  166.7081 C.3     1  UNL1        0.0976
     13 C         141.5318  141.6875  165.5811 C.3     1  UNL1        0.1126
     14 H         142.4678  141.5398  162.7114 H       1  UNL1        0.1509
     15 N         140.6211  141.8562  168.1935 N.3     1  UNL1       -0.2688
     16 C         140.7778  140.4361  168.6507 C.3     1  UNL1        0.0748
     17 C         140.8205  139.9043  170.0527 C.3     1  UNL1        0.0494
     18 C         140.7171  140.6612  171.3435 C.3     1  UNL1        0.1437
     19 O         140.5454  142.1367  171.5514 O.3     1  UNL1       -0.3522
     20 C         140.4347  143.2199  170.5196 C.3     1  UNL1        0.1594
     21 C         140.4684  143.0949  169.0252 C.3     1  UNL1        0.1046
     22 C         141.7092  142.8647  156.3438 C.3     1  UNL1        0.1007
     23 C         140.8473  143.9332  155.7393 C.ar    1  UNL1        0.0129
     24 C         139.8158  143.7331  154.6687 C.ar    1  UNL1        0.0176
     25 C         139.1965  145.0655  154.3670 C.ar    1  UNL1        0.0799
     26 N         139.8452  146.0891  155.2510 N.ar    1  UNL1       -0.3038
     27 C         140.8655  145.3892  156.0992 C.ar    1  UNL1        0.0772
     28 C         139.5292  147.5550  155.2816 C.ar    1  UNL1        0.0640
     29 C         138.8092  148.1428  156.4589 C.ar    1  UNL1        0.0175
     30 C         138.4932  149.6088  156.4895 C.ar    1  UNL1        0.0053
     31 C         138.8973  150.4872  155.3426 C.ar    1  UNL1        0.0715
     32 C         139.6173  149.8995  154.1653 C.ar    1  UNL1        0.0053
     33 C         139.9332  148.4335  154.1347 C.ar    1  UNL1        0.0175
     34 C         138.5813  151.9531  155.3732 C.3     1  UNL1        0.4186
     35 F         138.2653  153.4192  155.4037 F       1  UNL1       -0.1659
     36 F         138.8542  151.9813  156.8479 F       1  UNL1       -0.1659
     37 F         138.3084  151.9251  153.8985 F       1  UNL1       -0.1659
@<TRIPOS>BOND
     1     7     8    2
     2     8     9   am
     3     9     1    1
     4     1     2    1
     5     2     3    1
     6     3     4    1
     7     4    22    1
     8    22    23    1
     9    23    24   ar
    10    24    25   ar
    11    25    26   ar
    12    26    28    1
    13    28    29   ar
    14    29    30   ar
    15    30    31   ar
    16    31    34    1
    17    34    35    1
    18    34    36    1
    19    34    37    1
    20    31    32   ar
    21    32    33   ar
    22    26    27   ar
    23     4     5    1
    24     5     6    1
    25     8    10   am
    26    10    11    1
    27    11    12    1
    28    12    15    1
    29    15    16    1
    30    16    17    1
    31    17    18    1
    32    18    19    1
    33    19    20    1
    34    20    21    1
    35    12    13    1
    36     6     1    1
    37    13    10    1
    38    27    23   ar
    39    21    15    1
    40    33    28   ar
    41     9    14    1
@<TRIPOS>MOLECULE
*****
 37 41 0 0 0
SMALL
GASTEIGER

@<TRIPOS>ATOM
      1 C         141.2763  139.9163  160.6208 C.3     1  UNL1        0.0758
      2 C         142.4602  140.2380  159.7576 C.3     1  UNL1        0.0370
      3 C         142.5206  139.7299  158.3477 C.3     1  UNL1        0.0741
      4 N         141.3971  138.9000  157.8008 N.3     1  UNL1       -0.2688
      5 C         140.2132  138.5783  158.6639 C.3     1  UNL1        0.0741
      6 C         140.1528  139.0864  160.0739 C.3     1  UNL1        0.0370
      7 O         142.2426  138.1936  162.8788 O.2     1  UNL1       -0.2526
      8 C         141.6991  139.5631  163.1598 C.2     1  UNL1        0.3040
      9 N         141.2160  140.4245  162.0308 N.am    1  UNL1       -0.2903
     10 N         141.6387  140.0713  164.5698 N.am    1  UNL1       -0.2614
     11 C         142.0152  139.5199  165.9130 C.3     1  UNL1        0.1126
     12 C         141.5533  140.7900  166.5638 C.3     1  UNL1        0.0976
     13 C         141.1769  141.3415  165.2206 C.3     1  UNL1        0.1126
     14 H         140.8593  141.3234  162.2152 H       1  UNL1        0.1509
     15 N         141.4930  141.2981  167.9738 N.3     1  UNL1       -0.2688
     16 C         140.1993  141.0624  168.6957 C.3     1  UNL1        0.0748
     17 C         139.8274  141.4452  170.0976 C.3     1  UNL1        0.0494
     18 C         140.6572  142.1580  171.1238 C.3     1  UNL1        0.1437
     19 O         142.0640  142.6643  171.0017 O.3     1  UNL1       -0.3522
     20 C         142.9882  142.5827  169.8231 C.3     1  UNL1        0.1594
     21 C         142.7341  141.9747  168.4756 C.3     1  UNL1        0.1046
     22 C         141.4574  138.3918  156.3908 C.3     1  UNL1        0.1007
     23 C         142.2399  137.1520  156.0733 C.ar    1  UNL1        0.0129
     24 C         143.7046  137.0911  155.7553 C.ar    1  UNL1        0.0176
     25 C         144.0650  135.6570  155.5035 C.ar    1  UNL1        0.0799
     26 N         142.8232  134.8316  155.6659 N.ar    1  UNL1       -0.3038
     27 C         141.6951  135.7555  156.0180 C.ar    1  UNL1        0.0772
     28 C         142.7262  133.3435  155.5045 C.ar    1  UNL1        0.0640
     29 C         143.9619  132.4975  155.5908 C.ar    1  UNL1        0.0175
     30 C         143.8650  131.0094  155.4294 C.ar    1  UNL1        0.0053
     31 C         142.5322  130.3672  155.1817 C.ar    1  UNL1        0.0715
     32 C         141.2966  131.2131  155.0953 C.ar    1  UNL1        0.0053
     33 C         141.3935  132.7012  155.2567 C.ar    1  UNL1        0.0175
     34 C         142.4353  128.8791  155.0203 C.3     1  UNL1        0.4186
     35 F         142.3383  127.3909  154.8588 F       1  UNL1       -0.1659
     36 F         142.4819  128.7143  156.5105 F       1  UNL1       -0.1659
     37 F         142.3886  129.0437  153.5301 F       1  UNL1       -0.1659
@<TRIPOS>BOND
     1     7     8    2
     2     8     9   am
     3     9     1    1
     4     1     2    1
     5     2     3    1
     6     3     4    1
     7     4    22    1
     8    22    23    1
     9    23    24   ar
    10    24    25   ar
    11    25    26   ar
    12    26    28    1
    13    28    29   ar
    14    29    30   ar
    15    30    31   ar
    16    31    34    1
    17    34    35    1
    18    34    36    1
    19    34    37    1
    20    31    32   ar
    21    32    33   ar
    22    26    27   ar
    23     4     5    1
    24     5     6    1
    25     8    10   am
    26    10    11    1
    27    11    12    1
    28    12    15    1
    29    15    16    1
    30    16    17    1
    31    17    18    1
    32    18    19    1
    33    19    20    1
    34    20    21    1
    35    12    13    1
    36     6     1    1
    37    13    10    1
    38    27    23   ar
    39    21    15    1
    40    33    28   ar
    41     9    14    1
@<TRIPOS>MOLECULE
*****
 37 41 0 0 0
SMALL
GASTEIGER

@<TRIPOS>ATOM
      1 C         142.2285  140.9300  160.5148 C.3     1  UNL1        0.0758
      2 C         143.6005  141.1531  159.9510 C.3     1  UNL1        0.0370
      3 C         143.8452  140.9778  158.4816 C.3     1  UNL1        0.0741
      4 N         142.7179  140.5793  157.5759 N.3     1  UNL1       -0.2688
      5 C         141.3458  140.3561  158.1396 C.3     1  UNL1        0.0741
      6 C         141.1011  140.5315  159.6090 C.3     1  UNL1        0.0370
      7 O         142.7049  138.6438  162.3981 O.2     1  UNL1       -0.2526
      8 C         142.2220  139.9622  162.9259 C.2     1  UNL1        0.3040
      9 N         141.9838  141.1053  161.9843 N.am    1  UNL1       -0.2903
     10 N         141.9772  140.1376  164.3954 N.am    1  UNL1       -0.2614
     11 C         142.0986  139.2567  165.6034 C.3     1  UNL1        0.1126
     12 C         141.6312  140.3856  166.4735 C.3     1  UNL1        0.0976
     13 C         141.5098  141.2666  165.2655 C.3     1  UNL1        0.1126
     14 H         141.6668  141.9707  162.3307 H       1  UNL1        0.1509
     15 N         141.3865  140.5609  167.9430 N.3     1  UNL1       -0.2688
     16 C         142.5793  140.9660  168.7576 C.3     1  UNL1        0.0748
     17 C         142.6615  141.2181  170.2340 C.3     1  UNL1        0.0494
     18 C         141.5715  141.1275  171.2603 C.3     1  UNL1        0.1437
     19 O         140.1299  140.7624  171.0640 O.3     1  UNL1       -0.3522
     20 C         139.4224  140.3977  169.7926 C.3     1  UNL1        0.1594
     21 C         139.9817  140.3081  168.4037 C.3     1  UNL1        0.1046
     22 C         142.9625  140.4039  156.1063 C.3     1  UNL1        0.1007
     23 C         142.7707  139.0594  155.4693 C.ar    1  UNL1        0.0129
     24 C         142.1346  138.7981  154.1362 C.ar    1  UNL1        0.0176
     25 C         142.1521  137.3175  153.8967 C.ar    1  UNL1        0.0799
     26 N         142.7990  136.6637  155.0815 N.ar    1  UNL1       -0.3038
     27 C         143.1814  137.7403  156.0536 C.ar    1  UNL1        0.0772
     28 C         143.0241  135.1919  155.2627 C.ar    1  UNL1        0.0640
     29 C         142.5657  134.2276  154.2091 C.ar    1  UNL1        0.0175
     30 C         142.7908  132.7558  154.3903 C.ar    1  UNL1        0.0053
     31 C         143.4743  132.2480  155.6253 C.ar    1  UNL1        0.0715
     32 C         143.9327  133.2122  156.6788 C.ar    1  UNL1        0.0053
     33 C         143.7076  134.6841  156.4976 C.ar    1  UNL1        0.0175
     34 C         143.6994  130.7762  155.8064 C.3     1  UNL1        0.4186
     35 F         143.9244  129.3042  155.9877 F       1  UNL1       -0.1659
     36 F         145.0823  130.9182  155.2430 F       1  UNL1       -0.1659
     37 F         142.3166  130.6341  156.3699 F       1  UNL1       -0.1659
@<TRIPOS>BOND
     1     7     8    2
     2     8     9   am
     3     9     1    1
     4     1     2    1
     5     2     3    1
     6     3     4    1
     7     4    22    1
     8    22    23    1
     9    23    24   ar
    10    24    25   ar
    11    25    26   ar
    12    26    28    1
    13    28    29   ar
    14    29    30   ar
    15    30    31   ar
    16    31    34    1
    17    34    35    1
    18    34    36    1
    19    34    37    1
    20    31    32   ar
    21    32    33   ar
    22    26    27   ar
    23     4     5    1
    24     5     6    1
    25     8    10   am
    26    10    11    1
    27    11    12    1
    28    12    15    1
    29    15    16    1
    30    16    17    1
    31    17    18    1
    32    18    19    1
    33    19    20    1
    34    20    21    1
    35    12    13    1
    36     6     1    1
    37    13    10    1
    38    27    23   ar
    39    21    15    1
    40    33    28   ar
    41     9    14    1
