@<TRIPOS>MOLECULE
*****
 27 30 0 0 0
SMALL
GASTEIGER

@<TRIPOS>ATOM
      1 C         139.2327  142.3377  165.1697 C.ar    1  UNL1        0.0890
      2 C         140.1841  142.7108  166.2676 C.ar    1  UNL1        0.0401
      3 C         140.3976  141.7792  167.4238 C.ar    1  UNL1        0.1051
      4 N         141.3491  142.1522  168.5218 N.ar    1  UNL1       -0.2405
      5 C         141.5625  141.2207  169.6778 C.ar    1  UNL1        0.1195
      6 C         140.8245  139.9161  169.7360 C.ar    1  UNL1        0.1197
      7 N         139.8731  139.5430  168.6380 N.ar    1  UNL1       -0.2360
      8 C         139.6596  140.4746  167.4819 C.ar    1  UNL1        0.1519
      9 C         138.7081  140.1016  166.3839 C.ar    1  UNL1        0.2445
     10 N         138.4947  141.0331  165.2278 N.ar    1  UNL1       -0.2102
     11 C         139.8165  146.3293  161.7626 C.3     1  UNL1        0.1538
     12 N         139.2876  145.1040  162.4475 N.ar    1  UNL1       -0.2473
     13 C         139.8595  144.4660  163.6787 C.ar    1  UNL1        0.0982
     14 C         139.0192  143.2693  164.0135 C.ar    1  UNL1        0.0574
     15 C         137.9281  143.1678  162.9893 C.ar    1  UNL1        0.1231
     16 N         138.0939  144.3017  162.0214 N.ar    1  UNL1       -0.1675
     17 O         137.9701  138.7970  166.4420 O.3     1  UNL1       -0.4591
     18 C         138.5899  137.5584  165.8661 C.3     1  UNL1        0.2086
     19 C         139.4970  137.6575  164.6756 C.3     1  UNL1        0.0650
     20 C         138.9254  137.5973  163.2901 C.3     1  UNL1        0.0726
     21 N         139.8325  137.6964  162.0996 N.3     1  UNL1       -0.2928
     22 C         141.3112  137.8558  162.2945 C.3     1  UNL1        0.1359
     23 C         141.8829  137.9161  163.6801 C.3     1  UNL1        0.2783
     24 F         142.8911  138.0238  164.7855 F       1  UNL1       -0.2028
     25 F         143.1401  138.0526  162.8734 F       1  UNL1       -0.2028
     26 C         140.9758  137.8170  164.8706 C.3     1  UNL1        0.0731
     27 H         139.5187  138.5008  161.5565 H       1  UNL1        0.1234
@<TRIPOS>BOND
     1    11    12    1
     2    12    13   ar
     3    13    14   ar
     4    14     1    1
     5     1     2   ar
     6     2     3   ar
     7     3     4   ar
     8     4     5   ar
     9     5     6   ar
    10     6     7   ar
    11     7     8   ar
    12     8     9   ar
    13     9    17    1
    14    17    18    1
    15    18    19    1
    16    19    20    1
    17    20    21    1
    18    21    22    1
    19    22    23    1
    20    23    24    1
    21    23    25    1
    22    23    26    1
    23     9    10   ar
    24    14    15   ar
    25    15    16   ar
    26    16    12   ar
    27    10     1   ar
    28     8     3   ar
    29    26    19    1
    30    21    27    1
@<TRIPOS>MOLECULE
*****
 27 30 0 0 0
SMALL
GASTEIGER

@<TRIPOS>ATOM
      1 C         140.7376  142.6039  165.9489 C.ar    1  UNL1        0.0890
      2 C         140.4840  142.8066  167.4133 C.ar    1  UNL1        0.0401
      3 C         141.2040  141.9627  168.4231 C.ar    1  UNL1        0.1051
      4 N         140.9504  142.1655  169.8875 N.ar    1  UNL1       -0.2405
      5 C         141.6704  141.3216  170.8972 C.ar    1  UNL1        0.1195
      6 C         142.6440  140.2750  170.4425 C.ar    1  UNL1        0.1197
      7 N         142.8976  140.0723  168.9781 N.ar    1  UNL1       -0.2360
      8 C         142.1776  140.9161  167.9684 C.ar    1  UNL1        0.1519
      9 C         142.4312  140.7134  166.5039 C.ar    1  UNL1        0.2445
     10 N         141.7112  141.5573  165.4942 N.ar    1  UNL1       -0.2102
     11 C         139.7527  146.0444  162.0664 C.3     1  UNL1        0.1538
     12 N         139.5650  145.0292  163.1545 N.ar    1  UNL1       -0.2473
     13 C         140.6546  144.4014  163.9723 C.ar    1  UNL1        0.0982
     14 C         140.0176  143.4477  164.9391 C.ar    1  UNL1        0.0574
     15 C         138.5344  143.4861  164.7190 C.ar    1  UNL1        0.1231
     16 N         138.2546  144.4634  163.6161 N.ar    1  UNL1       -0.1675
     17 O         143.4047  139.6668  166.0492 O.3     1  UNL1       -0.4591
     18 C         142.9155  138.2988  165.6762 C.3     1  UNL1        0.2086
     19 C         141.9750  138.1280  164.5202 C.3     1  UNL1        0.0650
     20 C         142.4755  138.2912  163.1156 C.3     1  UNL1        0.0726
     21 N         141.5350  138.1204  161.9597 N.3     1  UNL1       -0.2928
     22 C         140.0939  137.7864  162.2083 C.3     1  UNL1        0.1359
     23 C         139.5933  137.6232  163.6129 C.3     1  UNL1        0.2783
     24 F         138.6527  137.3702  164.7536 F       1  UNL1       -0.2028
     25 F         138.3262  137.3646  162.8531 F       1  UNL1       -0.2028
     26 C         140.5339  137.7940  164.7688 C.3     1  UNL1        0.0731
     27 H         141.9146  137.3725  161.3792 H       1  UNL1        0.1234
@<TRIPOS>BOND
     1    11    12    1
     2    12    13   ar
     3    13    14   ar
     4    14     1    1
     5     1     2   ar
     6     2     3   ar
     7     3     4   ar
     8     4     5   ar
     9     5     6   ar
    10     6     7   ar
    11     7     8   ar
    12     8     9   ar
    13     9    17    1
    14    17    18    1
    15    18    19    1
    16    19    20    1
    17    20    21    1
    18    21    22    1
    19    22    23    1
    20    23    24    1
    21    23    25    1
    22    23    26    1
    23     9    10   ar
    24    14    15   ar
    25    15    16   ar
    26    16    12   ar
    27    10     1   ar
    28     8     3   ar
    29    26    19    1
    30    21    27    1
@<TRIPOS>MOLECULE
*****
 27 30 0 0 0
SMALL
GASTEIGER

@<TRIPOS>ATOM
      1 C         139.4406  140.3199  166.2166 C.ar    1  UNL1        0.0890
      2 C         139.2026  139.1294  165.3356 C.ar    1  UNL1        0.0401
      3 C         138.6818  139.3199  163.9418 C.ar    1  UNL1        0.1051
      4 N         138.4438  138.1294  163.0609 N.ar    1  UNL1       -0.2405
      5 C         137.9231  138.3199  161.6672 C.ar    1  UNL1        0.1195
      6 C         137.6404  139.7009  161.1544 C.ar    1  UNL1        0.1197
      7 N         137.8784  140.8914  162.0353 N.ar    1  UNL1       -0.2360
      8 C         138.3991  140.7009  163.4290 C.ar    1  UNL1        0.1519
      9 C         138.6371  141.8914  164.3100 C.ar    1  UNL1        0.2445
     10 N         139.1578  141.7009  165.7038 N.ar    1  UNL1       -0.2102
     11 C         142.7125  139.6843  170.3118 C.3     1  UNL1        0.1538
     12 N         141.4653  139.8373  169.4927 N.ar    1  UNL1       -0.2473
     13 C         141.4043  140.0190  168.0049 C.ar    1  UNL1        0.0982
     14 C         139.9613  140.1295  167.6104 C.ar    1  UNL1        0.0574
     15 C         139.1306  140.0161  168.8541 C.ar    1  UNL1        0.1231
     16 N         140.0600  139.8355  170.0175 N.ar    1  UNL1       -0.1675
     17 O         138.3544  143.2724  163.7972 O.3     1  UNL1       -0.4591
     18 C         139.2352  144.4173  164.2011 C.3     1  UNL1        0.2086
     19 C         140.6679  144.4540  163.7581 C.3     1  UNL1        0.0650
     20 C         141.0311  145.0825  162.4455 C.3     1  UNL1        0.0726
     21 N         142.4637  145.1192  162.0024 N.3     1  UNL1       -0.2928
     22 C         143.5331  144.5274  162.8720 C.3     1  UNL1        0.1359
     23 C         143.1698  143.8988  164.1847 C.3     1  UNL1        0.2783
     24 F         143.3225  143.1986  165.5024 F       1  UNL1       -0.2028
     25 F         144.6554  143.6923  164.1993 F       1  UNL1       -0.2028
     26 C         141.7372  143.8621  164.6277 C.3     1  UNL1        0.0731
     27 H         142.7048  146.1009  161.8662 H       1  UNL1        0.1234
@<TRIPOS>BOND
     1    11    12    1
     2    12    13   ar
     3    13    14   ar
     4    14     1    1
     5     1     2   ar
     6     2     3   ar
     7     3     4   ar
     8     4     5   ar
     9     5     6   ar
    10     6     7   ar
    11     7     8   ar
    12     8     9   ar
    13     9    17    1
    14    17    18    1
    15    18    19    1
    16    19    20    1
    17    20    21    1
    18    21    22    1
    19    22    23    1
    20    23    24    1
    21    23    25    1
    22    23    26    1
    23     9    10   ar
    24    14    15   ar
    25    15    16   ar
    26    16    12   ar
    27    10     1   ar
    28     8     3   ar
    29    26    19    1
    30    21    27    1
@<TRIPOS>MOLECULE
*****
 27 30 0 0 0
SMALL
GASTEIGER

@<TRIPOS>ATOM
      1 C         142.2069  139.6227  165.8882 C.ar    1  UNL1        0.0890
      2 C         143.3132  139.2581  164.9432 C.ar    1  UNL1        0.0401
      3 C         142.9912  138.8134  163.5472 C.ar    1  UNL1        0.1051
      4 N         144.0975  138.4488  162.6022 N.ar    1  UNL1       -0.2405
      5 C         143.7755  138.0042  161.2064 C.ar    1  UNL1        0.1195
      6 C         142.3471  137.9241  160.7555 C.ar    1  UNL1        0.1197
      7 N         141.2408  138.2887  161.7005 N.ar    1  UNL1       -0.2360
      8 C         141.5628  138.7333  163.0963 C.ar    1  UNL1        0.1519
      9 C         140.4564  139.0980  164.0414 C.ar    1  UNL1        0.2445
     10 N         140.7785  139.5426  165.4373 N.ar    1  UNL1       -0.2102
     11 C         143.3338  142.6623  170.0562 C.3     1  UNL1        0.1538
     12 N         143.0469  141.4646  169.1999 N.ar    1  UNL1       -0.2473
     13 C         142.7545  141.4822  167.7287 C.ar    1  UNL1        0.0982
     14 C         142.5289  140.0674  167.2841 C.ar    1  UNL1        0.0574
     15 C         142.6818  139.1755  168.4804 C.ar    1  UNL1        0.1231
     16 N         143.0020  140.0390  169.6644 N.ar    1  UNL1       -0.1675
     17 O         139.0281  139.0179  163.5905 O.3     1  UNL1       -0.4591
     18 C         138.0024  139.9394  164.1811 C.3     1  UNL1        0.2086
     19 C         138.0304  141.4025  163.8517 C.3     1  UNL1        0.0650
     20 C         137.4952  141.8855  162.5363 C.3     1  UNL1        0.0726
     21 N         137.5233  143.3486  162.2069 N.3     1  UNL1       -0.2928
     22 C         138.0865  144.3287  163.1929 C.3     1  UNL1        0.1359
     23 C         138.6217  143.8457  164.5084 C.3     1  UNL1        0.2783
     24 F         139.2413  143.8742  165.8741 F       1  UNL1       -0.2028
     25 F         138.8649  145.3187  164.6533 F       1  UNL1       -0.2028
     26 C         138.5936  142.3826  164.8378 C.3     1  UNL1        0.0731
     27 H         136.5586  143.6294  162.0310 H       1  UNL1        0.1234
@<TRIPOS>BOND
     1    11    12    1
     2    12    13   ar
     3    13    14   ar
     4    14     1    1
     5     1     2   ar
     6     2     3   ar
     7     3     4   ar
     8     4     5   ar
     9     5     6   ar
    10     6     7   ar
    11     7     8   ar
    12     8     9   ar
    13     9    17    1
    14    17    18    1
    15    18    19    1
    16    19    20    1
    17    20    21    1
    18    21    22    1
    19    22    23    1
    20    23    24    1
    21    23    25    1
    22    23    26    1
    23     9    10   ar
    24    14    15   ar
    25    15    16   ar
    26    16    12   ar
    27    10     1   ar
    28     8     3   ar
    29    26    19    1
    30    21    27    1
@<TRIPOS>MOLECULE
*****
 27 30 0 0 0
SMALL
GASTEIGER

@<TRIPOS>ATOM
      1 C         142.8035  140.8939  165.2315 C.ar    1  UNL1        0.0890
      2 C         143.0918  141.3269  166.6384 C.ar    1  UNL1        0.0401
      3 C         142.1477  140.9593  167.7446 C.ar    1  UNL1        0.1051
      4 N         142.4359  141.3922  169.1515 N.ar    1  UNL1       -0.2405
      5 C         141.4918  141.0246  170.2576 C.ar    1  UNL1        0.1195
      6 C         140.2595  140.2241  169.9568 C.ar    1  UNL1        0.1197
      7 N         139.9712  139.7911  168.5499 N.ar    1  UNL1       -0.2360
      8 C         140.9153  140.1587  167.4438 C.ar    1  UNL1        0.1519
      9 C         140.6271  139.7258  166.0368 C.ar    1  UNL1        0.2445
     10 N         141.5712  140.0934  164.9307 N.ar    1  UNL1       -0.2102
     11 C         144.7017  142.5913  160.6058 C.3     1  UNL1        0.1538
     12 N         144.6201  142.0418  161.9991 N.ar    1  UNL1       -0.2473
     13 C         143.3635  141.8247  162.7891 C.ar    1  UNL1        0.0982
     14 C         143.7477  141.2616  164.1253 C.ar    1  UNL1        0.0574
     15 C         145.2415  141.1305  164.1611 C.ar    1  UNL1        0.1231
     16 N         145.7807  141.6127  162.8470 N.ar    1  UNL1       -0.1675
     17 O         139.3947  138.9253  165.7359 O.3     1  UNL1       -0.4591
     18 C         138.1011  139.6235  165.4380 C.3     1  UNL1        0.2086
     19 C         138.0229  140.6081  164.3091 C.3     1  UNL1        0.0650
     20 C         138.0805  140.1275  162.8893 C.3     1  UNL1        0.0726
     21 N         138.0023  141.1122  161.7605 N.3     1  UNL1       -0.2928
     22 C         137.8665  142.5774  162.0513 C.3     1  UNL1        0.1359
     23 C         137.8088  143.0580  163.4711 C.3     1  UNL1        0.2783
     24 F         137.7124  143.9934  164.6398 F       1  UNL1       -0.2028
     25 F         137.6971  144.3675  162.7481 F       1  UNL1       -0.2028
     26 C         137.8870  142.0734  164.6000 C.3     1  UNL1        0.0731
     27 H         137.1956  140.8482  161.1949 H       1  UNL1        0.1234
@<TRIPOS>BOND
     1    11    12    1
     2    12    13   ar
     3    13    14   ar
     4    14     1    1
     5     1     2   ar
     6     2     3   ar
     7     3     4   ar
     8     4     5   ar
     9     5     6   ar
    10     6     7   ar
    11     7     8   ar
    12     8     9   ar
    13     9    17    1
    14    17    18    1
    15    18    19    1
    16    19    20    1
    17    20    21    1
    18    21    22    1
    19    22    23    1
    20    23    24    1
    21    23    25    1
    22    23    26    1
    23     9    10   ar
    24    14    15   ar
    25    15    16   ar
    26    16    12   ar
    27    10     1   ar
    28     8     3   ar
    29    26    19    1
    30    21    27    1
@<TRIPOS>MOLECULE
*****
 27 30 0 0 0
SMALL
GASTEIGER

@<TRIPOS>ATOM
      1 C         139.8043  139.6720  165.2234 C.ar    1  UNL1        0.0890
      2 C         139.0708  139.5423  166.5253 C.ar    1  UNL1        0.0401
      3 C         139.7309  139.9668  167.8037 C.ar    1  UNL1        0.1051
      4 N         138.9973  139.8371  169.1056 N.ar    1  UNL1       -0.2405
      5 C         139.6575  140.2616  170.3839 C.ar    1  UNL1        0.1195
      6 C         141.0511  140.8158  170.3602 C.ar    1  UNL1        0.1197
      7 N         141.7847  140.9455  169.0583 N.ar    1  UNL1       -0.2360
      8 C         141.1246  140.5210  167.7800 C.ar    1  UNL1        0.1519
      9 C         141.8581  140.6507  166.4780 C.ar    1  UNL1        0.2445
     10 N         141.1980  140.2262  165.1998 N.ar    1  UNL1       -0.2102
     11 C         137.3875  139.8160  160.5309 C.3     1  UNL1        0.1538
     12 N         138.0333  139.3138  161.7882 N.ar    1  UNL1       -0.2473
     13 C         138.6024  140.1621  162.8867 C.ar    1  UNL1        0.0982
     14 C         139.1442  139.2475  163.9451 C.ar    1  UNL1        0.0574
     15 C         138.9101  137.8342  163.5007 C.ar    1  UNL1        0.1231
     16 N         138.2236  137.8750  162.1677 N.ar    1  UNL1       -0.1675
     17 O         143.2518  141.2048  166.4544 O.3     1  UNL1       -0.4591
     18 C         143.5271  142.5135  165.7751 C.3     1  UNL1        0.2086
     19 C         143.9928  142.5351  164.3494 C.3     1  UNL1        0.0650
     20 C         145.3301  141.9597  163.9884 C.3     1  UNL1        0.0726
     21 N         145.7958  141.9813  162.5627 N.3     1  UNL1       -0.2928
     22 C         144.9242  142.5784  161.4979 C.3     1  UNL1        0.1359
     23 C         143.5868  143.1539  161.8589 C.3     1  UNL1        0.2783
     24 F         142.2499  143.8168  161.7064 F       1  UNL1       -0.2028
     25 F         143.5882  143.4057  160.3802 F       1  UNL1       -0.2028
     26 C         143.1211  143.1323  163.2846 C.3     1  UNL1        0.0731
     27 H         145.9669  141.0123  162.2940 H       1  UNL1        0.1234
@<TRIPOS>BOND
     1    11    12    1
     2    12    13   ar
     3    13    14   ar
     4    14     1    1
     5     1     2   ar
     6     2     3   ar
     7     3     4   ar
     8     4     5   ar
     9     5     6   ar
    10     6     7   ar
    11     7     8   ar
    12     8     9   ar
    13     9    17    1
    14    17    18    1
    15    18    19    1
    16    19    20    1
    17    20    21    1
    18    21    22    1
    19    22    23    1
    20    23    24    1
    21    23    25    1
    22    23    26    1
    23     9    10   ar
    24    14    15   ar
    25    15    16   ar
    26    16    12   ar
    27    10     1   ar
    28     8     3   ar
    29    26    19    1
    30    21    27    1
@<TRIPOS>MOLECULE
*****
 27 30 0 0 0
SMALL
GASTEIGER

@<TRIPOS>ATOM
      1 C         141.4900  140.0199  165.0532 C.ar    1  UNL1        0.0890
      2 C         141.0788  139.9340  166.4931 C.ar    1  UNL1        0.0401
      3 C         141.7654  140.7837  167.5211 C.ar    1  UNL1        0.1051
      4 N         141.3542  140.6979  168.9611 N.ar    1  UNL1       -0.2405
      5 C         142.0408  141.5476  169.9890 C.ar    1  UNL1        0.1195
      6 C         143.1384  142.4832  169.5769 C.ar    1  UNL1        0.1197
      7 N         143.5495  142.5691  168.1369 N.ar    1  UNL1       -0.2360
      8 C         142.8630  141.7193  167.1090 C.ar    1  UNL1        0.1519
      9 C         143.2741  141.8052  165.6690 C.ar    1  UNL1        0.2445
     10 N         142.5876  140.9555  164.6411 N.ar    1  UNL1       -0.2102
     11 C         137.8614  138.1135  161.7244 C.3     1  UNL1        0.1538
     12 N         139.1355  138.2939  162.4951 N.ar    1  UNL1       -0.2473
     13 C         139.4106  139.3686  163.5048 C.ar    1  UNL1        0.0982
     14 C         140.8034  139.1701  164.0252 C.ar    1  UNL1        0.0574
     15 C         141.3891  137.9728  163.3372 C.ar    1  UNL1        0.1231
     16 N         140.3583  137.4312  162.3916 N.ar    1  UNL1       -0.1675
     17 O         144.3718  142.7408  165.2569 O.3     1  UNL1       -0.4591
     18 C         144.0490  144.1569  164.8822 C.3     1  UNL1        0.2086
     19 C         143.0350  144.4373  163.8130 C.3     1  UNL1        0.0650
     20 C         143.4408  144.4115  162.3692 C.3     1  UNL1        0.0726
     21 N         142.4269  144.6920  161.3000 N.3     1  UNL1       -0.2928
     22 C         141.0071  144.9982  161.6746 C.3     1  UNL1        0.1359
     23 C         140.6012  145.0240  163.1184 C.3     1  UNL1        0.2783
     24 F         139.7392  145.1640  164.3380 F       1  UNL1       -0.2028
     25 F         139.2879  145.3530  162.4728 F       1  UNL1       -0.2028
     26 C         141.6151  144.7435  164.1876 C.3     1  UNL1        0.0731
     27 H         142.4014  143.8706  160.6957 H       1  UNL1        0.1234
@<TRIPOS>BOND
     1    11    12    1
     2    12    13   ar
     3    13    14   ar
     4    14     1    1
     5     1     2   ar
     6     2     3   ar
     7     3     4   ar
     8     4     5   ar
     9     5     6   ar
    10     6     7   ar
    11     7     8   ar
    12     8     9   ar
    13     9    17    1
    14    17    18    1
    15    18    19    1
    16    19    20    1
    17    20    21    1
    18    21    22    1
    19    22    23    1
    20    23    24    1
    21    23    25    1
    22    23    26    1
    23     9    10   ar
    24    14    15   ar
    25    15    16   ar
    26    16    12   ar
    27    10     1   ar
    28     8     3   ar
    29    26    19    1
    30    21    27    1
@<TRIPOS>MOLECULE
*****
 27 30 0 0 0
SMALL
GASTEIGER

@<TRIPOS>ATOM
      1 C         140.4233  140.4954  165.8066 C.ar    1  UNL1        0.0890
      2 C         139.2180  139.9950  165.0671 C.ar    1  UNL1        0.0401
      3 C         139.3688  139.4164  163.6914 C.ar    1  UNL1        0.1051
      4 N         138.1636  138.9159  162.9520 N.ar    1  UNL1       -0.2405
      5 C         138.3144  138.3374  161.5763 C.ar    1  UNL1        0.1195
      6 C         139.6705  138.2593  160.9401 C.ar    1  UNL1        0.1197
      7 N         140.8758  138.7598  161.6795 N.ar    1  UNL1       -0.2360
      8 C         140.7250  139.3383  163.0551 C.ar    1  UNL1        0.1519
      9 C         141.9303  139.8389  163.7946 C.ar    1  UNL1        0.2445
     10 N         141.7794  140.4174  165.1703 N.ar    1  UNL1       -0.2102
     11 C         140.4956  143.8609  169.8747 C.3     1  UNL1        0.1538
     12 N         140.3057  142.6210  169.0522 N.ar    1  UNL1       -0.2473
     13 C         140.6131  142.4765  167.5911 C.ar    1  UNL1        0.0982
     14 C         140.2725  141.0740  167.1823 C.ar    1  UNL1        0.0574
     15 C         139.7546  140.3518  168.3906 C.ar    1  UNL1        0.1231
     16 N         139.7751  141.3078  169.5463 N.ar    1  UNL1       -0.1675
     17 O         143.2864  139.7608  163.1584 O.3     1  UNL1       -0.4591
     18 C         143.7299  140.8300  162.2044 C.3     1  UNL1        0.2086
     19 C         143.6772  142.2714  162.6161 C.3     1  UNL1        0.0650
     20 C         143.0407  143.2864  161.7135 C.3     1  UNL1        0.0726
     21 N         142.9880  144.7278  162.1252 N.3     1  UNL1       -0.2928
     22 C         143.5718  145.1543  163.4395 C.3     1  UNL1        0.1359
     23 C         144.2084  144.1393  164.3421 C.3     1  UNL1        0.2783
     24 F         144.9114  143.5543  165.5310 F       1  UNL1       -0.2028
     25 F         144.3998  145.3776  165.1667 F       1  UNL1       -0.2028
     26 C         144.2611  142.6979  163.9304 C.3     1  UNL1        0.0731
     27 H         142.0035  144.9940  162.1402 H       1  UNL1        0.1234
@<TRIPOS>BOND
     1    11    12    1
     2    12    13   ar
     3    13    14   ar
     4    14     1    1
     5     1     2   ar
     6     2     3   ar
     7     3     4   ar
     8     4     5   ar
     9     5     6   ar
    10     6     7   ar
    11     7     8   ar
    12     8     9   ar
    13     9    17    1
    14    17    18    1
    15    18    19    1
    16    19    20    1
    17    20    21    1
    18    21    22    1
    19    22    23    1
    20    23    24    1
    21    23    25    1
    22    23    26    1
    23     9    10   ar
    24    14    15   ar
    25    15    16   ar
    26    16    12   ar
    27    10     1   ar
    28     8     3   ar
    29    26    19    1
    30    21    27    1
@<TRIPOS>MOLECULE
*****
 27 30 0 0 0
SMALL
GASTEIGER

@<TRIPOS>ATOM
      1 C         142.8933  141.8272  165.3519 C.ar    1  UNL1        0.0890
      2 C         143.4368  142.2840  166.6733 C.ar    1  UNL1        0.0401
      3 C         142.5669  142.2484  167.8948 C.ar    1  UNL1        0.1051
      4 N         143.1103  142.7052  169.2161 N.ar    1  UNL1       -0.2405
      5 C         142.2404  142.6696  170.4375 C.ar    1  UNL1        0.1195
      6 C         140.8271  142.1772  170.3377 C.ar    1  UNL1        0.1197
      7 N         140.2836  141.7204  169.0164 N.ar    1  UNL1       -0.2360
      8 C         141.1535  141.7560  167.7949 C.ar    1  UNL1        0.1519
      9 C         140.6101  141.2991  166.4735 C.ar    1  UNL1        0.2445
     10 N         141.4800  141.3347  165.2521 N.ar    1  UNL1       -0.2102
     11 C         144.5518  142.5145  160.3862 C.3     1  UNL1        0.1538
     12 N         144.5255  142.1787  161.8479 N.ar    1  UNL1       -0.2473
     13 C         143.3420  142.3062  162.7608 C.ar    1  UNL1        0.0982
     14 C         143.7632  141.8628  164.1304 C.ar    1  UNL1        0.0574
     15 C         145.2070  141.4612  164.0641 C.ar    1  UNL1        0.1231
     16 N         145.6781  141.6564  162.6535 N.ar    1  UNL1       -0.1675
     17 O         139.1968  140.8067  166.3736 O.3     1  UNL1       -0.4591
     18 C         138.8794  139.6027  165.5372 C.3     1  UNL1        0.2086
     19 C         138.4775  139.7713  164.1019 C.3     1  UNL1        0.0650
     20 C         137.6219  140.9339  163.6943 C.3     1  UNL1        0.0726
     21 N         137.2201  141.1026  162.2590 N.3     1  UNL1       -0.2928
     22 C         137.6738  140.1086  161.2313 C.3     1  UNL1        0.1359
     23 C         138.5294  138.9459  161.6390 C.3     1  UNL1        0.2783
     24 F         139.3436  137.6903  161.5357 F       1  UNL1       -0.2028
     25 F         138.4103  138.6785  160.1679 F       1  UNL1       -0.2028
     26 C         138.9313  138.7772  163.0743 C.3     1  UNL1        0.0731
     27 H         137.5680  142.0139  161.9609 H       1  UNL1        0.1234
@<TRIPOS>BOND
     1    11    12    1
     2    12    13   ar
     3    13    14   ar
     4    14     1    1
     5     1     2   ar
     6     2     3   ar
     7     3     4   ar
     8     4     5   ar
     9     5     6   ar
    10     6     7   ar
    11     7     8   ar
    12     8     9   ar
    13     9    17    1
    14    17    18    1
    15    18    19    1
    16    19    20    1
    17    20    21    1
    18    21    22    1
    19    22    23    1
    20    23    24    1
    21    23    25    1
    22    23    26    1
    23     9    10   ar
    24    14    15   ar
    25    15    16   ar
    26    16    12   ar
    27    10     1   ar
    28     8     3   ar
    29    26    19    1
    30    21    27    1
