@<TRIPOS>MOLECULE
*****
 30 32 0 0 0
SMALL
GASTEIGER

@<TRIPOS>ATOM
      1 C         139.5965  137.9083  163.2763 C.ar    1  UNL1        0.1393
      2 C         139.2387  138.3128  164.6758 C.ar    1  UNL1        0.0370
      3 C         140.3212  138.5865  165.6774 C.ar    1  UNL1        0.0063
      4 C         141.7616  138.4558  165.2796 C.ar    1  UNL1        0.0392
      5 C         142.1194  138.0513  163.8802 C.ar    1  UNL1        0.0063
      6 C         141.0369  137.7776  162.8785 C.ar    1  UNL1        0.0370
      7 C         142.8441  138.7295  166.2812 C.2     1  UNL1        0.1961
      8 O         144.0303  137.8158  166.3721 O.2     1  UNL1       -0.2866
      9 C         142.7405  139.9169  167.1919 C.ar    1  UNL1        0.0460
     10 C         142.4014  139.7238  168.6403 C.ar    1  UNL1        0.0151
     11 C         142.2978  140.9111  169.5510 C.ar    1  UNL1        0.0578
     12 CL        141.9587  140.7181  170.9994 Cl      1  UNL1       -0.0822
     13 C         142.5333  142.2916  169.0134 C.ar    1  UNL1        0.0119
     14 C         142.8724  142.4847  167.5651 C.ar    1  UNL1        0.0077
     15 C         142.9760  141.2972  166.6543 C.ar    1  UNL1        0.0377
     16 BR        143.3151  141.4903  165.2059 Br      1  UNL1       -0.0489
     17 O         138.5140  137.6346  162.2748 O.3     1  UNL1       -0.4656
     18 C         137.6724  138.7614  161.7534 C.3     1  UNL1        0.2897
     19 N         138.2248  141.0867  162.7722 N.am    1  UNL1       -0.2796
     20 C         138.2602  140.1344  161.6138 C.2     1  UNL1        0.2707
     21 O         138.8835  140.5550  160.3159 O.2     1  UNL1       -0.2707
     22 H         137.8157  140.8106  163.6240 H       1  UNL1        0.1550
     23 C         140.8891  144.0091  162.4387 C.ar    1  UNL1        0.0888
     24 C         139.9884  145.2055  162.3536 C.ar    1  UNL1        0.1092
     25 N         138.4999  145.0290  162.4080 N.ar    1  UNL1       -0.2403
     26 C         137.9120  143.6561  162.5475 C.ar    1  UNL1        0.1135
     27 C         138.8127  142.4597  162.6326 C.ar    1  UNL1        0.0705
     28 C         140.3013  142.6362  162.5782 C.ar    1  UNL1        0.0281
     29 N         143.8663  144.3620  162.3299 N.1     1  UNL1       -0.1908
     30 C         142.3777  144.1855  162.3843 C.1     1  UNL1        0.1020
@<TRIPOS>BOND
     1    29    30    3
     2    30    23    1
     3    23    24   ar
     4    24    25   ar
     5    25    26   ar
     6    26    27   ar
     7    27    19    1
     8    19    20   am
     9    20    21    2
    10    20    18    1
    11    18    17    1
    12    17     1    1
    13     1     2   ar
    14     2     3   ar
    15     3     4   ar
    16     4     7    1
    17     7     8    2
    18     7     9    1
    19     9    10   ar
    20    10    11   ar
    21    11    12    1
    22    11    13   ar
    23    13    14   ar
    24    14    15   ar
    25    15    16    1
    26     4     5   ar
    27     5     6   ar
    28    27    28   ar
    29    28    23   ar
    30     6     1   ar
    31    15     9   ar
    32    19    22    1
@<TRIPOS>MOLECULE
*****
 30 32 0 0 0
SMALL
GASTEIGER

@<TRIPOS>ATOM
      1 C         139.6187  137.9603  163.4608 C.ar    1  UNL1        0.1393
      2 C         141.0163  137.4833  163.1973 C.ar    1  UNL1        0.0370
      3 C         142.1003  137.7469  164.1999 C.ar    1  UNL1        0.0063
      4 C         141.7868  138.4874  165.4661 C.ar    1  UNL1        0.0392
      5 C         140.3893  138.9644  165.7297 C.ar    1  UNL1        0.0063
      6 C         139.3052  138.7008  164.7270 C.ar    1  UNL1        0.0370
      7 C         142.8708  138.7510  166.4688 C.2     1  UNL1        0.1961
      8 O         144.0482  137.8262  166.5610 O.2     1  UNL1       -0.2866
      9 C         142.7775  139.9395  167.3793 C.ar    1  UNL1        0.0460
     10 C         142.4153  139.7517  168.8228 C.ar    1  UNL1        0.0151
     11 C         142.3220  140.9401  169.7333 C.ar    1  UNL1        0.0578
     12 CL        141.9598  140.7524  171.1768 Cl      1  UNL1       -0.0822
     13 C         142.5908  142.3163  169.2003 C.ar    1  UNL1        0.0119
     14 C         142.9530  142.5040  167.7569 C.ar    1  UNL1        0.0077
     15 C         143.0463  141.3155  166.8464 C.ar    1  UNL1        0.0377
     16 BR        143.4085  141.5033  165.4029 Br      1  UNL1       -0.0489
     17 O         138.5347  137.6967  162.4581 O.3     1  UNL1       -0.4656
     18 C         138.3097  138.6560  161.3272 C.3     1  UNL1        0.2897
     19 N         139.4993  140.9491  161.6047 N.am    1  UNL1       -0.2796
     20 C         138.2426  140.1302  161.5963 C.2     1  UNL1        0.2707
     21 O         136.9187  140.7855  161.8570 O.2     1  UNL1       -0.2707
     22 H         140.3682  140.5190  161.4336 H       1  UNL1        0.1550
     23 C         139.0204  144.3942  163.5157 C.ar    1  UNL1        0.0888
     24 C         139.2980  145.3714  162.4121 C.ar    1  UNL1        0.1092
     25 N         139.6427  144.8746  161.0394 N.ar    1  UNL1       -0.2403
     26 C         139.7098  143.4005  160.7702 C.ar    1  UNL1        0.1135
     27 C         139.4322  142.4232  161.8738 C.ar    1  UNL1        0.0705
     28 C         139.0875  142.9201  163.2465 C.ar    1  UNL1        0.0281
     29 N         138.3310  145.3879  166.2611 N.1     1  UNL1       -0.1908
     30 C         138.6757  144.8911  164.8884 C.1     1  UNL1        0.1020
@<TRIPOS>BOND
     1    29    30    3
     2    30    23    1
     3    23    24   ar
     4    24    25   ar
     5    25    26   ar
     6    26    27   ar
     7    27    19    1
     8    19    20   am
     9    20    21    2
    10    20    18    1
    11    18    17    1
    12    17     1    1
    13     1     2   ar
    14     2     3   ar
    15     3     4   ar
    16     4     7    1
    17     7     8    2
    18     7     9    1
    19     9    10   ar
    20    10    11   ar
    21    11    12    1
    22    11    13   ar
    23    13    14   ar
    24    14    15   ar
    25    15    16    1
    26     4     5   ar
    27     5     6   ar
    28    27    28   ar
    29    28    23   ar
    30     6     1   ar
    31    15     9   ar
    32    19    22    1
@<TRIPOS>MOLECULE
*****
 30 32 0 0 0
SMALL
GASTEIGER

@<TRIPOS>ATOM
      1 C         144.7113  141.4621  163.2054 C.ar    1  UNL1        0.1393
      2 C         144.4630  140.0202  163.5364 C.ar    1  UNL1        0.0370
      3 C         143.8442  139.6484  164.8512 C.ar    1  UNL1        0.0063
      4 C         143.4737  140.7183  165.8351 C.ar    1  UNL1        0.0392
      5 C         143.7220  142.1601  165.5042 C.ar    1  UNL1        0.0063
      6 C         144.3408  142.5320  164.1893 C.ar    1  UNL1        0.0370
      7 C         142.8550  140.3464  167.1499 C.2     1  UNL1        0.1961
      8 O         142.8291  138.9119  167.5877 O.2     1  UNL1       -0.2866
      9 C         142.2620  141.4090  168.0271 C.ar    1  UNL1        0.0460
     10 C         143.0810  142.0169  169.1269 C.ar    1  UNL1        0.0151
     11 C         142.4881  143.0795  170.0040 C.ar    1  UNL1        0.0578
     12 CL        143.3071  143.6874  171.1038 Cl      1  UNL1       -0.0822
     13 C         141.0761  143.5342  169.7813 C.ar    1  UNL1        0.0119
     14 C         140.2571  142.9263  168.6814 C.ar    1  UNL1        0.0077
     15 C         140.8500  141.8637  167.8043 C.ar    1  UNL1        0.0377
     16 BR        140.0310  141.2558  166.7045 Br      1  UNL1       -0.0489
     17 O         145.3301  141.8339  161.8906 O.3     1  UNL1       -0.4656
     18 C         144.5041  142.5121  160.8381 C.3     1  UNL1        0.2897
     19 N         142.0163  142.0863  161.4543 N.am    1  UNL1       -0.2796
     20 C         143.1414  143.0391  161.1782 C.2     1  UNL1        0.2707
     21 O         142.9040  144.5188  161.2421 O.2     1  UNL1       -0.2707
     22 H         142.1722  141.1151  161.4123 H       1  UNL1        0.1550
     23 C         139.0477  143.7866  163.4658 C.ar    1  UNL1        0.0888
     24 C         137.9285  143.6670  162.4744 C.ar    1  UNL1        0.1092
     25 N         138.1718  143.0205  161.1430 N.ar    1  UNL1       -0.2403
     26 C         139.5344  142.4936  160.8029 C.ar    1  UNL1        0.1135
     27 C         140.6536  142.6132  161.7943 C.ar    1  UNL1        0.0705
     28 C         140.4103  143.2597  163.1258 C.ar    1  UNL1        0.0281
     29 N         138.5610  145.0797  166.1287 N.1     1  UNL1       -0.1908
     30 C         138.8044  144.4332  164.7973 C.1     1  UNL1        0.1020
@<TRIPOS>BOND
     1    29    30    3
     2    30    23    1
     3    23    24   ar
     4    24    25   ar
     5    25    26   ar
     6    26    27   ar
     7    27    19    1
     8    19    20   am
     9    20    21    2
    10    20    18    1
    11    18    17    1
    12    17     1    1
    13     1     2   ar
    14     2     3   ar
    15     3     4   ar
    16     4     7    1
    17     7     8    2
    18     7     9    1
    19     9    10   ar
    20    10    11   ar
    21    11    12    1
    22    11    13   ar
    23    13    14   ar
    24    14    15   ar
    25    15    16    1
    26     4     5   ar
    27     5     6   ar
    28    27    28   ar
    29    28    23   ar
    30     6     1   ar
    31    15     9   ar
    32    19    22    1
@<TRIPOS>MOLECULE
*****
 30 32 0 0 0
SMALL
GASTEIGER

@<TRIPOS>ATOM
      1 C         138.5600  143.9098  163.4000 C.ar    1  UNL1        0.1393
      2 C         139.4382  143.8844  164.6158 C.ar    1  UNL1        0.0370
      3 C         139.5196  142.6447  165.4564 C.ar    1  UNL1        0.0063
      4 C         138.7229  141.4305  165.0812 C.ar    1  UNL1        0.0392
      5 C         137.8447  141.4559  163.8655 C.ar    1  UNL1        0.0063
      6 C         137.7632  142.6955  163.0248 C.ar    1  UNL1        0.0370
      7 C         138.8043  140.1909  165.9218 C.2     1  UNL1        0.1961
      8 O         137.7536  139.1279  165.7944 O.2     1  UNL1       -0.2866
      9 C         139.9364  140.0142  166.8900 C.ar    1  UNL1        0.0460
     10 C         139.7208  140.2738  168.3515 C.ar    1  UNL1        0.0151
     11 C         140.8528  140.0971  169.3196 C.ar    1  UNL1        0.0578
     12 CL        140.6372  140.3568  170.7812 Cl      1  UNL1       -0.0822
     13 C         142.2005  139.6607  168.8262 C.ar    1  UNL1        0.0119
     14 C         142.4161  139.4011  167.3646 C.ar    1  UNL1        0.0077
     15 C         141.2840  139.5778  166.3965 C.ar    1  UNL1        0.0377
     16 BR        141.4996  139.3182  164.9350 Br      1  UNL1       -0.0489
     17 O         138.4786  145.1494  162.5594 O.3     1  UNL1       -0.4656
     18 C         139.7101  145.6843  161.8907 C.3     1  UNL1        0.2897
     19 N         141.5300  145.4571  160.0504 N.am    1  UNL1       -0.2796
     20 C         140.1888  145.0780  160.6049 C.2     1  UNL1        0.2707
     21 O         139.3263  144.0924  159.8735 O.2     1  UNL1       -0.2707
     22 H         142.0961  146.1040  160.5304 H       1  UNL1        0.1550
     23 C         143.2037  142.9265  157.4921 C.ar    1  UNL1        0.0888
     24 C         142.9661  143.6381  156.1932 C.ar    1  UNL1        0.1092
     25 N         142.2499  144.9560  156.1800 N.ar    1  UNL1       -0.2403
     26 C         141.7712  145.5623  157.4657 C.ar    1  UNL1        0.1135
     27 C         142.0087  144.8508  158.7646 C.ar    1  UNL1        0.0705
     28 C         142.7250  143.5329  158.7778 C.ar    1  UNL1        0.0281
     29 N         144.6361  140.2908  157.5185 N.1     1  UNL1       -0.1908
     30 C         143.9199  141.6087  157.5053 C.1     1  UNL1        0.1020
@<TRIPOS>BOND
     1    29    30    3
     2    30    23    1
     3    23    24   ar
     4    24    25   ar
     5    25    26   ar
     6    26    27   ar
     7    27    19    1
     8    19    20   am
     9    20    21    2
    10    20    18    1
    11    18    17    1
    12    17     1    1
    13     1     2   ar
    14     2     3   ar
    15     3     4   ar
    16     4     7    1
    17     7     8    2
    18     7     9    1
    19     9    10   ar
    20    10    11   ar
    21    11    12    1
    22    11    13   ar
    23    13    14   ar
    24    14    15   ar
    25    15    16    1
    26     4     5   ar
    27     5     6   ar
    28    27    28   ar
    29    28    23   ar
    30     6     1   ar
    31    15     9   ar
    32    19    22    1
@<TRIPOS>MOLECULE
*****
 30 32 0 0 0
SMALL
GASTEIGER

@<TRIPOS>ATOM
      1 C         138.9339  144.3215  163.7321 C.ar    1  UNL1        0.1393
      2 C         140.0271  144.0535  164.7237 C.ar    1  UNL1        0.0370
      3 C         140.0885  142.7337  165.4338 C.ar    1  UNL1        0.0063
      4 C         139.0568  141.6819  165.1523 C.ar    1  UNL1        0.0392
      5 C         137.9636  141.9498  164.1608 C.ar    1  UNL1        0.0063
      6 C         137.9021  143.2697  163.4507 C.ar    1  UNL1        0.0370
      7 C         139.1182  140.3621  165.8624 C.2     1  UNL1        0.1961
      8 O         138.1678  139.2638  165.4877 O.2     1  UNL1       -0.2866
      9 C         140.1301  140.1405  166.9474 C.ar    1  UNL1        0.0460
     10 C         139.7779  140.4409  168.3742 C.ar    1  UNL1        0.0151
     11 C         140.7898  140.2194  169.4591 C.ar    1  UNL1        0.0578
     12 CL        140.4375  140.5198  170.8858 Cl      1  UNL1       -0.0822
     13 C         142.1539  139.6973  169.1173 C.ar    1  UNL1        0.0119
     14 C         142.5061  139.3969  167.6905 C.ar    1  UNL1        0.0077
     15 C         141.4942  139.6185  166.6055 C.ar    1  UNL1        0.0377
     16 BR        141.8464  139.3180  165.1788 Br      1  UNL1       -0.0489
     17 O         138.8724  145.6413  163.0220 O.3     1  UNL1       -0.4656
     18 C         139.9248  146.0012  162.0156 C.3     1  UNL1        0.2897
     19 N         141.8853  144.8105  160.7954 N.am    1  UNL1       -0.2796
     20 C         140.4143  144.9711  161.0413 C.2     1  UNL1        0.2707
     21 O         139.4328  144.1016  160.3129 O.2     1  UNL1       -0.2707
     22 H         142.5295  145.3812  161.2735 H       1  UNL1        0.1550
     23 C         143.2954  141.3997  159.3367 C.ar    1  UNL1        0.0888
     24 C         143.3538  141.7201  157.8725 C.ar    1  UNL1        0.1092
     25 N         142.9226  143.0707  157.3826 N.ar    1  UNL1       -0.2403
     26 C         142.4331  144.1008  158.3569 C.ar    1  UNL1        0.1135
     27 C         142.3748  143.7804  159.8210 C.ar    1  UNL1        0.0705
     28 C         142.8059  142.4298  160.3110 C.ar    1  UNL1        0.0281
     29 N         144.1577  138.6985  160.3165 N.1     1  UNL1       -0.1908
     30 C         143.7266  140.0491  159.8266 C.1     1  UNL1        0.1020
@<TRIPOS>BOND
     1    29    30    3
     2    30    23    1
     3    23    24   ar
     4    24    25   ar
     5    25    26   ar
     6    26    27   ar
     7    27    19    1
     8    19    20   am
     9    20    21    2
    10    20    18    1
    11    18    17    1
    12    17     1    1
    13     1     2   ar
    14     2     3   ar
    15     3     4   ar
    16     4     7    1
    17     7     8    2
    18     7     9    1
    19     9    10   ar
    20    10    11   ar
    21    11    12    1
    22    11    13   ar
    23    13    14   ar
    24    14    15   ar
    25    15    16    1
    26     4     5   ar
    27     5     6   ar
    28    27    28   ar
    29    28    23   ar
    30     6     1   ar
    31    15     9   ar
    32    19    22    1
@<TRIPOS>MOLECULE
*****
 30 32 0 0 0
SMALL
GASTEIGER

@<TRIPOS>ATOM
      1 C         140.6304  145.0555  163.1493 C.ar    1  UNL1        0.1393
      2 C         142.0952  144.7668  163.2950 C.ar    1  UNL1        0.0370
      3 C         142.5664  143.7775  164.3193 C.ar    1  UNL1        0.0063
      4 C         141.5728  143.0768  165.1979 C.ar    1  UNL1        0.0392
      5 C         140.1081  143.3655  165.0522 C.ar    1  UNL1        0.0063
      6 C         139.6369  144.3548  164.0279 C.ar    1  UNL1        0.0370
      7 C         142.0440  142.0875  166.2222 C.2     1  UNL1        0.1961
      8 O         143.4400  141.5432  166.1526 O.2     1  UNL1       -0.2866
      9 C         141.1191  141.6425  167.3161 C.ar    1  UNL1        0.0460
     10 C         140.9388  142.4934  168.5382 C.ar    1  UNL1        0.0151
     11 C         140.0140  142.0484  169.6321 C.ar    1  UNL1        0.0578
     12 CL        139.8336  142.8993  170.8541 Cl      1  UNL1       -0.0822
     13 C         139.2695  140.7524  169.5040 C.ar    1  UNL1        0.0119
     14 C         139.4499  139.9015  168.2820 C.ar    1  UNL1        0.0077
     15 C         140.3747  140.3466  167.1880 C.ar    1  UNL1        0.0377
     16 BR        140.5551  139.4956  165.9660 Br      1  UNL1       -0.0489
     17 O         140.1593  146.0448  162.1250 O.3     1  UNL1       -0.4656
     18 C         140.0606  145.6424  160.6834 C.3     1  UNL1        0.2897
     19 N         138.9118  143.3181  160.5156 N.am    1  UNL1       -0.2796
     20 C         140.1125  144.1919  160.3044 C.2     1  UNL1        0.2707
     21 O         141.3653  143.6154  159.7142 O.2     1  UNL1       -0.2707
     22 H         138.0896  143.6965  160.9030 H       1  UNL1        0.1550
     23 C         139.5898  139.4127  160.7123 C.ar    1  UNL1        0.0888
     24 C         139.0677  138.9669  159.3787 C.ar    1  UNL1        0.1092
     25 N         138.4937  139.9714  158.4240 N.ar    1  UNL1       -0.2403
     26 C         138.4417  141.4218  158.8029 C.ar    1  UNL1        0.1135
     27 C         138.9638  141.8676  160.1366 C.ar    1  UNL1        0.0705
     28 C         139.5378  140.8631  161.0912 C.ar    1  UNL1        0.0281
     29 N         140.7379  137.4037  162.6216 N.1     1  UNL1       -0.1908
     30 C         140.1639  138.4082  161.6670 C.1     1  UNL1        0.1020
@<TRIPOS>BOND
     1    29    30    3
     2    30    23    1
     3    23    24   ar
     4    24    25   ar
     5    25    26   ar
     6    26    27   ar
     7    27    19    1
     8    19    20   am
     9    20    21    2
    10    20    18    1
    11    18    17    1
    12    17     1    1
    13     1     2   ar
    14     2     3   ar
    15     3     4   ar
    16     4     7    1
    17     7     8    2
    18     7     9    1
    19     9    10   ar
    20    10    11   ar
    21    11    12    1
    22    11    13   ar
    23    13    14   ar
    24    14    15   ar
    25    15    16    1
    26     4     5   ar
    27     5     6   ar
    28    27    28   ar
    29    28    23   ar
    30     6     1   ar
    31    15     9   ar
    32    19    22    1
@<TRIPOS>MOLECULE
*****
 30 32 0 0 0
SMALL
GASTEIGER

@<TRIPOS>ATOM
      1 C         138.9700  144.0831  163.8118 C.ar    1  UNL1        0.1393
      2 C         137.9726  142.9917  163.5583 C.ar    1  UNL1        0.0370
      3 C         138.0284  141.7241  164.3582 C.ar    1  UNL1        0.0063
      4 C         139.0816  141.5477  165.4117 C.ar    1  UNL1        0.0392
      5 C         140.0789  142.6391  165.6652 C.ar    1  UNL1        0.0063
      6 C         140.0231  143.9068  164.8652 C.ar    1  UNL1        0.0370
      7 C         139.1374  140.2801  166.2116 C.2     1  UNL1        0.1961
      8 O         137.9280  139.3977  166.3041 O.2     1  UNL1       -0.2866
      9 C         140.4028  139.8948  166.9192 C.ar    1  UNL1        0.0460
     10 C         141.5580  139.3389  166.1405 C.ar    1  UNL1        0.0151
     11 C         142.8233  138.9536  166.8479 C.ar    1  UNL1        0.0578
     12 CL        143.9785  138.3977  166.0692 Cl      1  UNL1       -0.0822
     13 C         142.9334  139.1243  168.3342 C.ar    1  UNL1        0.0119
     14 C         141.7782  139.6802  169.1129 C.ar    1  UNL1        0.0077
     15 C         140.5128  140.0655  168.4053 C.ar    1  UNL1        0.0377
     16 BR        139.3576  140.6214  169.1840 Br      1  UNL1       -0.0489
     17 O         138.9141  145.3507  163.0119 O.3     1  UNL1       -0.4656
     18 C         140.1093  145.7907  162.2194 C.3     1  UNL1        0.2897
     19 N         141.6064  145.5760  160.1069 N.am    1  UNL1       -0.2796
     20 C         140.3559  145.2194  160.8545 C.2     1  UNL1        0.2707
     21 O         139.3518  144.2916  160.2372 O.2     1  UNL1       -0.2707
     22 H         142.2654  146.1850  160.5121 H       1  UNL1        0.1550
     23 C         141.6241  145.1689  156.1593 C.ar    1  UNL1        0.0888
     24 C         142.3462  143.8624  156.0123 C.ar    1  UNL1        0.1092
     25 N         142.8217  143.1271  157.2302 N.ar    1  UNL1       -0.2403
     26 C         142.5751  143.6983  158.5950 C.ar    1  UNL1        0.1135
     27 C         141.8531  145.0048  158.7420 C.ar    1  UNL1        0.0705
     28 C         141.3776  145.7401  157.5241 C.ar    1  UNL1        0.0281
     29 N         140.6732  146.6395  153.7235 N.1     1  UNL1       -0.1908
     30 C         141.1487  145.9042  154.9414 C.1     1  UNL1        0.1020
@<TRIPOS>BOND
     1    29    30    3
     2    30    23    1
     3    23    24   ar
     4    24    25   ar
     5    25    26   ar
     6    26    27   ar
     7    27    19    1
     8    19    20   am
     9    20    21    2
    10    20    18    1
    11    18    17    1
    12    17     1    1
    13     1     2   ar
    14     2     3   ar
    15     3     4   ar
    16     4     7    1
    17     7     8    2
    18     7     9    1
    19     9    10   ar
    20    10    11   ar
    21    11    12    1
    22    11    13   ar
    23    13    14   ar
    24    14    15   ar
    25    15    16    1
    26     4     5   ar
    27     5     6   ar
    28    27    28   ar
    29    28    23   ar
    30     6     1   ar
    31    15     9   ar
    32    19    22    1
@<TRIPOS>MOLECULE
*****
 30 32 0 0 0
SMALL
GASTEIGER

@<TRIPOS>ATOM
      1 C         139.5164  137.6242  164.4385 C.ar    1  UNL1        0.1393
      2 C         140.9633  137.3507  164.7247 C.ar    1  UNL1        0.0370
      3 C         141.9999  137.6236  163.6755 C.ar    1  UNL1        0.0063
      4 C         141.5897  138.1700  162.3401 C.ar    1  UNL1        0.0392
      5 C         140.1429  138.4435  162.0539 C.ar    1  UNL1        0.0063
      6 C         139.1062  138.1706  163.1031 C.ar    1  UNL1        0.0370
      7 C         142.6264  138.4429  161.2909 C.2     1  UNL1        0.1961
      8 O         142.9540  137.3942  160.2696 O.2     1  UNL1       -0.2866
      9 C         143.3354  139.7645  161.2629 C.ar    1  UNL1        0.0460
     10 C         144.2942  140.1245  162.3588 C.ar    1  UNL1        0.0151
     11 C         145.0032  141.4461  162.3308 C.ar    1  UNL1        0.0578
     12 CL        145.9621  141.8061  163.4267 Cl      1  UNL1       -0.0822
     13 C         144.7534  142.4076  161.2069 C.ar    1  UNL1        0.0119
     14 C         143.7946  142.0475  160.1110 C.ar    1  UNL1        0.0077
     15 C         143.0856  140.7259  160.1390 C.ar    1  UNL1        0.0377
     16 BR        142.1268  140.3659  159.0431 Br      1  UNL1       -0.0489
     17 O         138.4797  137.3513  165.4877 O.3     1  UNL1       -0.4656
     18 C         137.9752  138.4687  166.3519 C.3     1  UNL1        0.2897
     19 N         139.5839  139.4401  168.1459 N.am    1  UNL1       -0.2796
     20 C         138.9135  139.5463  166.8083 C.2     1  UNL1        0.2707
     21 O         139.1815  140.7302  165.9270 O.2     1  UNL1       -0.2707
     22 H         139.4080  138.6631  168.7244 H       1  UNL1        0.1550
     23 C         140.9167  142.8985  169.5649 C.ar    1  UNL1        0.0888
     24 C         142.3988  142.6731  169.5150 C.ar    1  UNL1        0.1092
     25 N         142.9426  141.3700  169.0088 N.ar    1  UNL1       -0.2403
     26 C         142.0043  140.2924  168.5524 C.ar    1  UNL1        0.1135
     27 C         140.5222  140.5178  168.6023 C.ar    1  UNL1        0.0705
     28 C         139.9784  141.8208  169.1086 C.ar    1  UNL1        0.0281
     29 N         139.8290  145.5046  170.5775 N.1     1  UNL1       -0.1908
     30 C         140.3728  144.2015  170.0712 C.1     1  UNL1        0.1020
@<TRIPOS>BOND
     1    29    30    3
     2    30    23    1
     3    23    24   ar
     4    24    25   ar
     5    25    26   ar
     6    26    27   ar
     7    27    19    1
     8    19    20   am
     9    20    21    2
    10    20    18    1
    11    18    17    1
    12    17     1    1
    13     1     2   ar
    14     2     3   ar
    15     3     4   ar
    16     4     7    1
    17     7     8    2
    18     7     9    1
    19     9    10   ar
    20    10    11   ar
    21    11    12    1
    22    11    13   ar
    23    13    14   ar
    24    14    15   ar
    25    15    16    1
    26     4     5   ar
    27     5     6   ar
    28    27    28   ar
    29    28    23   ar
    30     6     1   ar
    31    15     9   ar
    32    19    22    1
@<TRIPOS>MOLECULE
*****
 30 32 0 0 0
SMALL
GASTEIGER

@<TRIPOS>ATOM
      1 C         140.9584  144.7572  163.6889 C.ar    1  UNL1        0.1393
      2 C         139.9085  144.3323  164.6725 C.ar    1  UNL1        0.0370
      3 C         140.0968  143.0798  165.4761 C.ar    1  UNL1        0.0063
      4 C         141.3348  142.2522  165.2963 C.ar    1  UNL1        0.0392
      5 C         142.3846  142.6771  164.3127 C.ar    1  UNL1        0.0063
      6 C         142.1964  143.9296  163.5090 C.ar    1  UNL1        0.0370
      7 C         141.5230  140.9997  166.0999 C.2     1  UNL1        0.1961
      8 O         142.6110  140.9259  167.1298 O.2     1  UNL1       -0.2866
      9 C         140.6232  139.8211  165.8736 C.ar    1  UNL1        0.0460
     10 C         139.3668  139.6710  166.6792 C.ar    1  UNL1        0.0151
     11 C         138.4671  138.4924  166.4529 C.ar    1  UNL1        0.0578
     12 CL        137.2107  138.3424  167.2585 Cl      1  UNL1       -0.0822
     13 C         138.8236  137.4638  165.4210 C.ar    1  UNL1        0.0119
     14 C         140.0800  137.6138  164.6154 C.ar    1  UNL1        0.0077
     15 C         140.9798  138.7925  164.8417 C.ar    1  UNL1        0.0377
     16 BR        142.2362  138.9425  164.0361 Br      1  UNL1       -0.0489
     17 O         140.7702  146.0096  162.8853 O.3     1  UNL1       -0.4656
     18 C         139.8969  145.9941  161.6659 C.3     1  UNL1        0.2897
     19 N         141.6595  145.5885  159.8008 N.am    1  UNL1       -0.2796
     20 C         140.3404  145.2604  160.4350 C.2     1  UNL1        0.2707
     21 O         139.4648  144.1987  159.8383 O.2     1  UNL1       -0.2707
     22 H         142.2342  146.2854  160.1924 H       1  UNL1        0.1550
     23 C         143.1934  142.7733  157.4615 C.ar    1  UNL1        0.0888
     24 C         142.9902  143.3875  156.1082 C.ar    1  UNL1        0.1092
     25 N         142.3434  144.7353  155.9858 N.ar    1  UNL1       -0.2403
     26 C         141.8999  145.4690  157.2166 C.ar    1  UNL1        0.1135
     27 C         142.1031  144.8548  158.5699 C.ar    1  UNL1        0.0705
     28 C         142.7499  143.5070  158.6923 C.ar    1  UNL1        0.0281
     29 N         144.4869  140.0776  157.7065 N.1     1  UNL1       -0.1908
     30 C         143.8402  141.4255  157.5840 C.1     1  UNL1        0.1020
@<TRIPOS>BOND
     1    29    30    3
     2    30    23    1
     3    23    24   ar
     4    24    25   ar
     5    25    26   ar
     6    26    27   ar
     7    27    19    1
     8    19    20   am
     9    20    21    2
    10    20    18    1
    11    18    17    1
    12    17     1    1
    13     1     2   ar
    14     2     3   ar
    15     3     4   ar
    16     4     7    1
    17     7     8    2
    18     7     9    1
    19     9    10   ar
    20    10    11   ar
    21    11    12    1
    22    11    13   ar
    23    13    14   ar
    24    14    15   ar
    25    15    16    1
    26     4     5   ar
    27     5     6   ar
    28    27    28   ar
    29    28    23   ar
    30     6     1   ar
    31    15     9   ar
    32    19    22    1
