@<TRIPOS>MOLECULE
*****
 33 36 0 0 0
SMALL
GASTEIGER

@<TRIPOS>ATOM
      1 N         144.1801  138.7315  163.6439 N.3     1  UNL1       -0.2863
      2 H         144.9342  139.3732  163.3992 H       1  UNL1        0.1240
      3 C         143.4620  139.3336  164.8151 C.3     1  UNL1        0.1341
      4 C         142.5312  140.5090  164.7692 C.3     1  UNL1        0.0471
      5 C         142.0426  140.7679  166.1636 C.3     1  UNL1        0.1031
      6 N         142.6714  139.7526  167.0711 N.am    1  UNL1       -0.2252
      7 C         142.4600  139.6430  168.5521 C.2     1  UNL1        0.2567
      8 O         143.1604  138.5702  169.3323 O.2     1  UNL1       -0.2694
      9 C         143.5486  138.8661  166.2377 C.2     1  UNL1        0.2459
     10 O         144.3686  137.7144  166.7389 O.2     1  UNL1       -0.2730
     11 C         141.5482  140.6061  169.2529 C.ar    1  UNL1        0.0772
     12 C         140.0857  140.2979  169.3789 C.ar    1  UNL1        0.0081
     13 C         139.1739  141.2609  170.0797 C.ar    1  UNL1        0.0209
     14 C         139.7247  142.5322  170.6546 C.ar    1  UNL1        0.0994
     15 N         141.1873  142.8404  170.5286 N.ar    1  UNL1       -0.2378
     16 C         142.0991  141.8774  169.8278 C.ar    1  UNL1        0.1074
     17 S         143.5616  142.1856  169.7018 S.3     1  UNL1       -0.1226
     18 H         143.8254  143.3815  170.2933 H       1  UNL1        0.1086
     19 C         143.4334  138.4374  162.3766 C.3     1  UNL1        0.1151
     20 N         141.5956  139.7548  160.9512 N.ar    1  UNL1       -0.3070
     21 C         141.5921  141.0046  160.1217 C.ar    1  UNL1        0.1786
     22 N         142.9750  141.5851  160.1524 N.ar    1  UNL1       -0.2226
     23 C         143.8331  140.6940  161.0008 C.ar    1  UNL1        0.1147
     24 C         142.9806  139.5629  161.4945 C.ar    1  UNL1        0.0739
     25 C         140.4204  138.8549  161.1946 C.3     1  UNL1        0.1340
     26 C         138.5822  138.6141  165.2950 C.ar    1  UNL1        0.0684
     27 C         139.4423  137.4930  164.7916 C.ar    1  UNL1        0.0100
     28 C         140.0550  137.5733  163.4248 C.ar    1  UNL1       -0.0017
     29 C         139.8077  138.7747  162.5614 C.ar    1  UNL1        0.0005
     30 C         138.9477  139.8957  163.0648 C.ar    1  UNL1       -0.0017
     31 C         138.3349  139.8154  164.4316 C.ar    1  UNL1        0.0100
     32 N         137.3567  138.4535  168.0285 N.1     1  UNL1       -0.1908
     33 C         137.9695  138.5338  166.6618 C.1     1  UNL1        0.1004
@<TRIPOS>BOND
     1    32    33    3
     2    33    26    1
     3    26    27   ar
     4    27    28   ar
     5    28    29   ar
     6    29    25    1
     7    25    20    1
     8    20    21   ar
     9    21    22   ar
    10    22    23   ar
    11    23    24   ar
    12    24    19    1
    13    19     1    1
    14     3     1    1
    15     3     4    1
    16     4     5    1
    17     5     6    1
    18     6     7   am
    19     7     8    2
    20     7    11    1
    21    11    12   ar
    22    12    13   ar
    23    13    14   ar
    24    14    15   ar
    25    15    16   ar
    26    16    17    1
    27     6     9   am
    28     9    10    2
    29    29    30   ar
    30    30    31   ar
    31    31    26   ar
    32    24    20   ar
    33     9     3    1
    34    16    11   ar
    35     1     2    1
    36    17    18    1
@<TRIPOS>MOLECULE
*****
 33 36 0 0 0
SMALL
GASTEIGER

@<TRIPOS>ATOM
      1 N         144.7929  139.6503  163.2529 N.3     1  UNL1       -0.2863
      2 H         145.6981  140.0874  163.4261 H       1  UNL1        0.1240
      3 C         143.9986  139.7834  164.5184 C.3     1  UNL1        0.1341
      4 C         143.7757  138.7051  165.5369 C.3     1  UNL1        0.0471
      5 C         142.9271  139.2735  166.6355 C.3     1  UNL1        0.1031
      6 N         142.6256  140.7030  166.2958 N.am    1  UNL1       -0.2252
      7 C         141.8058  141.6510  167.1199 C.2     1  UNL1        0.2567
      8 O         141.5889  143.0588  166.6499 O.2     1  UNL1       -0.2694
      9 C         143.2878  141.0182  164.9874 C.2     1  UNL1        0.2459
     10 O         143.2465  142.3367  164.2733 O.2     1  UNL1       -0.2730
     11 C         141.2027  141.1911  168.4142 C.ar    1  UNL1        0.0772
     12 C         139.8169  140.6176  168.4339 C.ar    1  UNL1        0.0081
     13 C         139.2139  140.1578  169.7281 C.ar    1  UNL1        0.0209
     14 C         139.9968  140.2714  171.0025 C.ar    1  UNL1        0.0994
     15 N         141.3827  140.8449  170.9828 N.ar    1  UNL1       -0.2378
     16 C         141.9857  141.3048  169.6886 C.ar    1  UNL1        0.1074
     17 S         143.3715  141.8782  169.6689 S.3     1  UNL1       -0.1226
     18 H         143.8792  141.8806  170.9306 H       1  UNL1        0.1086
     19 C         144.2688  140.2323  161.9736 C.3     1  UNL1        0.1151
     20 N         141.7430  139.6441  161.3258 N.ar    1  UNL1       -0.3070
     21 C         141.0879  138.7185  160.3439 C.ar    1  UNL1        0.1786
     22 N         142.1688  137.9961  159.5956 N.ar    1  UNL1       -0.2226
     23 C         143.4919  138.4753  160.1150 C.ar    1  UNL1        0.1147
     24 C         143.2288  139.4938  161.1843 C.ar    1  UNL1        0.0739
     25 C         141.0365  140.5594  162.2814 C.3     1  UNL1        0.1340
     26 C         138.5227  138.8449  165.5967 C.ar    1  UNL1        0.0684
     27 C         139.6197  138.0241  164.9860 C.ar    1  UNL1        0.0100
     28 C         140.4576  138.5956  163.8809 C.ar    1  UNL1       -0.0017
     29 C         140.1986  139.9879  163.3865 C.ar    1  UNL1        0.0005
     30 C         139.1016  140.8086  163.9971 C.ar    1  UNL1       -0.0017
     31 C         138.2636  140.2371  165.1023 C.ar    1  UNL1        0.0100
     32 N         136.8468  137.7019  167.8069 N.1     1  UNL1       -0.1908
     33 C         137.6847  138.2734  166.7018 C.1     1  UNL1        0.1004
@<TRIPOS>BOND
     1    32    33    3
     2    33    26    1
     3    26    27   ar
     4    27    28   ar
     5    28    29   ar
     6    29    25    1
     7    25    20    1
     8    20    21   ar
     9    21    22   ar
    10    22    23   ar
    11    23    24   ar
    12    24    19    1
    13    19     1    1
    14     3     1    1
    15     3     4    1
    16     4     5    1
    17     5     6    1
    18     6     7   am
    19     7     8    2
    20     7    11    1
    21    11    12   ar
    22    12    13   ar
    23    13    14   ar
    24    14    15   ar
    25    15    16   ar
    26    16    17    1
    27     6     9   am
    28     9    10    2
    29    29    30   ar
    30    30    31   ar
    31    31    26   ar
    32    24    20   ar
    33     9     3    1
    34    16    11   ar
    35     1     2    1
    36    17    18    1
@<TRIPOS>MOLECULE
*****
 33 36 0 0 0
SMALL
GASTEIGER

@<TRIPOS>ATOM
      1 N         144.0557  139.3064  163.4789 N.3     1  UNL1       -0.2863
      2 H         145.0590  139.3285  163.6614 H       1  UNL1        0.1240
      3 C         143.3805  139.8467  164.7045 C.3     1  UNL1        0.1341
      4 C         142.5637  141.1025  164.7801 C.3     1  UNL1        0.0471
      5 C         142.0820  141.2579  166.1921 C.3     1  UNL1        0.1031
      6 N         142.6012  140.0982  166.9892 N.am    1  UNL1       -0.2252
      7 C         142.3602  139.8536  168.4493 C.2     1  UNL1        0.2567
      8 O         142.9472  138.6437  169.1140 O.2     1  UNL1       -0.2694
      9 C         143.4038  139.2260  166.0699 C.2     1  UNL1        0.2459
     10 O         144.1062  137.9560  166.4492 O.2     1  UNL1       -0.2730
     11 C         141.5323  140.8188  169.2449 C.ar    1  UNL1        0.0772
     12 C         140.0566  140.5955  169.3941 C.ar    1  UNL1        0.0081
     13 C         139.2286  141.5607  170.1896 C.ar    1  UNL1        0.0209
     14 C         139.8764  142.7492  170.8359 C.ar    1  UNL1        0.0994
     15 N         141.3522  142.9726  170.6867 N.ar    1  UNL1       -0.2378
     16 C         142.1802  142.0074  169.8912 C.ar    1  UNL1        0.1074
     17 S         143.6558  142.2307  169.7419 S.3     1  UNL1       -0.1226
     18 H         144.0129  143.3612  170.4084 H       1  UNL1        0.1086
     19 C         143.8425  139.9704  162.1508 C.3     1  UNL1        0.1151
     20 N         141.4823  139.5761  160.9596 N.ar    1  UNL1       -0.3070
     21 C         140.9978  138.7303  159.8195 C.ar    1  UNL1        0.1786
     22 N         142.1687  137.9621  159.2819 N.ar    1  UNL1       -0.2226
     23 C         143.3769  138.3331  160.0898 C.ar    1  UNL1        0.1147
     24 C         142.9527  139.3306  161.1266 C.ar    1  UNL1        0.0739
     25 C         140.6438  140.5044  161.7873 C.3     1  UNL1        0.1340
     26 C         138.4723  138.9493  165.4089 C.ar    1  UNL1        0.0684
     27 C         138.2547  140.3616  164.9530 C.ar    1  UNL1        0.0100
     28 C         138.9785  140.8800  163.7458 C.ar    1  UNL1       -0.0017
     29 C         139.9199  139.9860  162.9945 C.ar    1  UNL1        0.0005
     30 C         140.1376  138.5737  163.4504 C.ar    1  UNL1       -0.0017
     31 C         139.4137  138.0553  164.6577 C.ar    1  UNL1        0.0100
     32 N         137.0247  137.9126  167.8234 N.1     1  UNL1       -0.1908
     33 C         137.7485  138.4309  166.6162 C.1     1  UNL1        0.1004
@<TRIPOS>BOND
     1    32    33    3
     2    33    26    1
     3    26    27   ar
     4    27    28   ar
     5    28    29   ar
     6    29    25    1
     7    25    20    1
     8    20    21   ar
     9    21    22   ar
    10    22    23   ar
    11    23    24   ar
    12    24    19    1
    13    19     1    1
    14     3     1    1
    15     3     4    1
    16     4     5    1
    17     5     6    1
    18     6     7   am
    19     7     8    2
    20     7    11    1
    21    11    12   ar
    22    12    13   ar
    23    13    14   ar
    24    14    15   ar
    25    15    16   ar
    26    16    17    1
    27     6     9   am
    28     9    10    2
    29    29    30   ar
    30    30    31   ar
    31    31    26   ar
    32    24    20   ar
    33     9     3    1
    34    16    11   ar
    35     1     2    1
    36    17    18    1
@<TRIPOS>MOLECULE
*****
 33 36 0 0 0
SMALL
GASTEIGER

@<TRIPOS>ATOM
      1 N         143.1750  138.0807  162.4336 N.3     1  UNL1       -0.2863
      2 H         143.8257  138.6195  161.8622 H       1  UNL1        0.1240
      3 C         142.9180  138.8858  163.6729 C.3     1  UNL1        0.1341
      4 C         142.3575  138.3641  164.9627 C.3     1  UNL1        0.0471
      5 C         142.2695  139.5099  165.9269 C.3     1  UNL1        0.1031
      6 N         142.7755  140.7396  165.2329 N.am    1  UNL1       -0.2252
      7 C         142.8651  142.1137  165.8275 C.2     1  UNL1        0.2567
      8 O         143.3953  143.2526  165.0078 O.2     1  UNL1       -0.2694
      9 C         143.1764  140.3539  163.8398 C.2     1  UNL1        0.2459
     10 O         143.7371  141.2746  162.7969 O.2     1  UNL1       -0.2730
     11 C         142.4245  142.3491  167.2420 C.ar    1  UNL1        0.0772
     12 C         143.4045  142.1992  168.3675 C.ar    1  UNL1        0.0081
     13 C         142.9639  142.4345  169.7819 C.ar    1  UNL1        0.0209
     14 C         141.5433  142.8198  170.0706 C.ar    1  UNL1        0.0994
     15 N         140.5633  142.9697  168.9450 N.ar    1  UNL1       -0.2378
     16 C         141.0038  142.7344  167.5306 C.ar    1  UNL1        0.1074
     17 S         140.0238  142.8843  166.4050 S.3     1  UNL1       -0.1226
     18 H         138.8091  143.2359  166.9054 H       1  UNL1        0.1086
     19 C         142.0336  137.6928  161.5410 C.3     1  UNL1        0.1151
     20 N         139.9331  139.0059  160.5365 N.ar    1  UNL1       -0.3070
     21 C         139.7500  140.0980  159.5247 C.ar    1  UNL1        0.1786
     22 N         141.1046  140.4831  159.0078 N.ar    1  UNL1       -0.2226
     23 C         142.1249  139.6289  159.7003 C.ar    1  UNL1        0.1147
     24 C         141.4009  138.7160  160.6450 C.ar    1  UNL1        0.0739
     25 C         138.8405  138.3236  161.3049 C.3     1  UNL1        0.1340
     26 C         138.4821  138.9526  165.7462 C.ar    1  UNL1        0.0684
     27 C         138.1974  140.0837  164.8032 C.ar    1  UNL1        0.0100
     28 C         138.3169  139.8740  163.3227 C.ar    1  UNL1       -0.0017
     29 C         138.7210  138.5332  162.7853 C.ar    1  UNL1        0.0005
     30 C         139.0057  137.4021  163.7284 C.ar    1  UNL1       -0.0017
     31 C         138.8862  137.6118  165.2088 C.ar    1  UNL1        0.0100
     32 N         138.2431  139.3719  168.7072 N.1     1  UNL1       -0.1908
     33 C         138.3626  139.1622  167.2267 C.1     1  UNL1        0.1004
@<TRIPOS>BOND
     1    32    33    3
     2    33    26    1
     3    26    27   ar
     4    27    28   ar
     5    28    29   ar
     6    29    25    1
     7    25    20    1
     8    20    21   ar
     9    21    22   ar
    10    22    23   ar
    11    23    24   ar
    12    24    19    1
    13    19     1    1
    14     3     1    1
    15     3     4    1
    16     4     5    1
    17     5     6    1
    18     6     7   am
    19     7     8    2
    20     7    11    1
    21    11    12   ar
    22    12    13   ar
    23    13    14   ar
    24    14    15   ar
    25    15    16   ar
    26    16    17    1
    27     6     9   am
    28     9    10    2
    29    29    30   ar
    30    30    31   ar
    31    31    26   ar
    32    24    20   ar
    33     9     3    1
    34    16    11   ar
    35     1     2    1
    36    17    18    1
@<TRIPOS>MOLECULE
*****
 33 36 0 0 0
SMALL
GASTEIGER

@<TRIPOS>ATOM
      1 N         144.5116  140.8259  163.0635 N.3     1  UNL1       -0.2863
      2 H         145.0225  141.6830  162.8522 H       1  UNL1        0.1240
      3 C         143.7717  141.0676  164.3457 C.3     1  UNL1        0.1341
      4 C         142.9700  142.2893  164.6842 C.3     1  UNL1        0.0471
      5 C         142.4065  142.1068  166.0623 C.3     1  UNL1        0.1031
      6 N         142.8600  140.7723  166.5755 N.am    1  UNL1       -0.2252
      7 C         142.5281  140.1834  167.9145 C.2     1  UNL1        0.2567
      8 O         143.0565  138.8309  168.2909 O.2     1  UNL1       -0.2694
      9 C         143.7038  140.1300  165.5146 C.2     1  UNL1        0.2459
     10 O         144.3637  138.7861  165.6064 O.2     1  UNL1       -0.2730
     11 C         141.6677  140.9470  168.8772 C.ar    1  UNL1        0.0772
     12 C         140.1947  140.6728  168.9468 C.ar    1  UNL1        0.0081
     13 C         139.3343  141.4364  169.9095 C.ar    1  UNL1        0.0209
     14 C         139.9470  142.4741  170.8026 C.ar    1  UNL1        0.0994
     15 N         141.4201  142.7483  170.7330 N.ar    1  UNL1       -0.2378
     16 C         142.2805  141.9847  169.7703 C.ar    1  UNL1        0.1074
     17 S         143.7535  142.2589  169.7008 S.3     1  UNL1       -0.1226
     18 H         144.0765  143.2308  170.5957 H       1  UNL1        0.1086
     19 C         143.7577  140.4537  161.8212 C.3     1  UNL1        0.1151
     20 N         141.1923  139.7305  161.6193 N.ar    1  UNL1       -0.3070
     21 C         140.4333  138.4504  161.8073 C.ar    1  UNL1        0.1786
     22 N         141.4131  137.3833  162.1965 N.ar    1  UNL1       -0.2226
     23 C         142.7777  138.0040  162.2490 C.ar    1  UNL1        0.1147
     24 C         142.6413  139.4545  161.8924 C.ar    1  UNL1        0.0739
     25 C         140.6055  141.0541  161.2272 C.3     1  UNL1        0.1340
     26 C         139.0699  143.8607  164.3918 C.ar    1  UNL1        0.0684
     27 C         138.7282  142.4015  164.4537 C.ar    1  UNL1        0.0100
     28 C         139.2401  141.4659  163.3988 C.ar    1  UNL1       -0.0017
     29 C         140.0937  141.9896  162.2821 C.ar    1  UNL1        0.0005
     30 C         140.4353  143.4488  162.2202 C.ar    1  UNL1       -0.0017
     31 C         139.9234  144.3844  163.2751 C.ar    1  UNL1        0.0100
     32 N         138.0461  145.7318  166.5015 N.1     1  UNL1       -0.1908
     33 C         138.5580  144.7962  165.4466 C.1     1  UNL1        0.1004
@<TRIPOS>BOND
     1    32    33    3
     2    33    26    1
     3    26    27   ar
     4    27    28   ar
     5    28    29   ar
     6    29    25    1
     7    25    20    1
     8    20    21   ar
     9    21    22   ar
    10    22    23   ar
    11    23    24   ar
    12    24    19    1
    13    19     1    1
    14     3     1    1
    15     3     4    1
    16     4     5    1
    17     5     6    1
    18     6     7   am
    19     7     8    2
    20     7    11    1
    21    11    12   ar
    22    12    13   ar
    23    13    14   ar
    24    14    15   ar
    25    15    16   ar
    26    16    17    1
    27     6     9   am
    28     9    10    2
    29    29    30   ar
    30    30    31   ar
    31    31    26   ar
    32    24    20   ar
    33     9     3    1
    34    16    11   ar
    35     1     2    1
    36    17    18    1
@<TRIPOS>MOLECULE
*****
 33 36 0 0 0
SMALL
GASTEIGER

@<TRIPOS>ATOM
      1 N         144.5888  141.9336  162.8644 N.3     1  UNL1       -0.2863
      2 H         144.8680  142.9099  162.7680 H       1  UNL1        0.1240
      3 C         143.8059  141.8311  164.1398 C.3     1  UNL1        0.1341
      4 C         142.8772  142.8724  164.6904 C.3     1  UNL1        0.0471
      5 C         142.3116  142.3541  165.9793 C.3     1  UNL1        0.1031
      6 N         142.8907  140.9924  166.2253 N.am    1  UNL1       -0.2252
      7 C         142.5977  140.1091  167.4016 C.2     1  UNL1        0.2567
      8 O         143.2555  138.7656  167.5130 O.2     1  UNL1       -0.2694
      9 C         143.8142  140.6692  165.0884 C.2     1  UNL1        0.2459
     10 O         144.6069  139.4058  164.9283 O.2     1  UNL1       -0.2730
     11 C         141.6469  140.5693  168.4667 C.ar    1  UNL1        0.0772
     12 C         140.2362  140.0599  168.4837 C.ar    1  UNL1        0.0081
     13 C         139.2854  140.5200  169.5487 C.ar    1  UNL1        0.0209
     14 C         139.7453  141.4895  170.5968 C.ar    1  UNL1        0.0994
     15 N         141.1561  141.9989  170.5798 N.ar    1  UNL1       -0.2378
     16 C         142.1069  141.5388  169.5148 C.ar    1  UNL1        0.1074
     17 S         143.5176  142.0482  169.4978 S.3     1  UNL1       -0.1226
     18 H         143.7017  142.9078  170.5356 H       1  UNL1        0.1086
     19 C         143.9591  141.5328  161.5633 C.3     1  UNL1        0.1151
     20 N         141.3449  140.9750  161.5720 N.ar    1  UNL1       -0.3070
     21 C         140.1037  141.7025  161.1475 C.ar    1  UNL1        0.1786
     22 N         140.5128  143.0403  160.6061 N.ar    1  UNL1       -0.2226
     23 C         142.0069  143.1395  160.6960 C.ar    1  UNL1        0.1147
     24 C         142.5211  141.8631  161.2929 C.ar    1  UNL1        0.0739
     25 C         141.4002  139.6007  162.1705 C.3     1  UNL1        0.1340
     26 C         138.6396  138.5061  165.5514 C.ar    1  UNL1        0.0684
     27 C         138.9557  139.9466  165.2777 C.ar    1  UNL1        0.0100
     28 C         139.8759  140.3114  164.1507 C.ar    1  UNL1       -0.0017
     29 C         140.4800  139.2358  163.2975 C.ar    1  UNL1        0.0005
     30 C         140.1639  137.7953  163.5712 C.ar    1  UNL1       -0.0017
     31 C         139.2437  137.4304  164.6982 C.ar    1  UNL1        0.0100
     32 N         136.7992  137.7764  167.8054 N.1     1  UNL1       -0.1908
     33 C         137.7194  138.1412  166.6784 C.1     1  UNL1        0.1004
@<TRIPOS>BOND
     1    32    33    3
     2    33    26    1
     3    26    27   ar
     4    27    28   ar
     5    28    29   ar
     6    29    25    1
     7    25    20    1
     8    20    21   ar
     9    21    22   ar
    10    22    23   ar
    11    23    24   ar
    12    24    19    1
    13    19     1    1
    14     3     1    1
    15     3     4    1
    16     4     5    1
    17     5     6    1
    18     6     7   am
    19     7     8    2
    20     7    11    1
    21    11    12   ar
    22    12    13   ar
    23    13    14   ar
    24    14    15   ar
    25    15    16   ar
    26    16    17    1
    27     6     9   am
    28     9    10    2
    29    29    30   ar
    30    30    31   ar
    31    31    26   ar
    32    24    20   ar
    33     9     3    1
    34    16    11   ar
    35     1     2    1
    36    17    18    1
@<TRIPOS>MOLECULE
*****
 33 36 0 0 0
SMALL
GASTEIGER

@<TRIPOS>ATOM
      1 N         138.6033  139.8862  165.8156 N.3     1  UNL1       -0.2863
      2 H         138.0374  140.6602  166.1637 H       1  UNL1        0.1240
      3 C         139.1288  140.3033  164.4740 C.3     1  UNL1        0.1341
      4 C         140.4272  139.8683  163.8616 C.3     1  UNL1        0.0471
      5 C         140.5490  140.5248  162.5183 C.3     1  UNL1        0.1031
      6 N         139.3259  141.3654  162.3007 N.am    1  UNL1       -0.2252
      7 C         139.0321  142.1969  161.0873 C.2     1  UNL1        0.2567
      8 O         137.7608  142.9893  161.0110 O.2     1  UNL1       -0.2694
      9 C         138.4482  141.2285  163.5093 C.2     1  UNL1        0.2459
     10 O         137.1226  141.8991  163.7168 O.2     1  UNL1       -0.2730
     11 C         140.0097  142.2360  159.9502 C.ar    1  UNL1        0.0772
     12 C         141.1297  143.2336  159.9580 C.ar    1  UNL1        0.0081
     13 C         142.1073  143.2727  158.8210 C.ar    1  UNL1        0.0209
     14 C         141.9647  142.3142  157.6761 C.ar    1  UNL1        0.0994
     15 N         140.8446  141.3165  157.6682 N.ar    1  UNL1       -0.2378
     16 C         139.8671  141.2774  158.8053 C.ar    1  UNL1        0.1074
     17 S         138.7471  140.2797  158.7974 S.3     1  UNL1       -0.1226
     18 H         138.8207  139.5245  157.6688 H       1  UNL1        0.1086
     19 C         139.5570  139.5190  166.9137 C.3     1  UNL1        0.1151
     20 N         140.6502  141.5640  168.2433 N.ar    1  UNL1       -0.3070
     21 C         140.4563  142.1712  169.6012 C.ar    1  UNL1        0.1786
     22 N         139.3868  141.3927  170.3086 N.ar    1  UNL1       -0.2226
     23 C         138.9198  140.3045  169.3879 C.ar    1  UNL1        0.1147
     24 C         139.7005  140.4103  168.1116 C.ar    1  UNL1        0.0739
     25 C         141.6229  142.0288  167.2004 C.3     1  UNL1        0.1340
     26 C         140.2029  144.5833  163.7786 C.ar    1  UNL1        0.0684
     27 C         139.3353  144.4003  164.9884 C.ar    1  UNL1        0.0100
     28 C         139.8086  143.5488  166.1290 C.ar    1  UNL1       -0.0017
     29 C         141.1496  142.8803  166.0598 C.ar    1  UNL1        0.0005
     30 C         142.0172  143.0633  164.8500 C.ar    1  UNL1       -0.0017
     31 C         141.5439  143.9148  163.7094 C.ar    1  UNL1        0.0100
     32 N         139.2563  146.2862  161.4974 N.1     1  UNL1       -0.1908
     33 C         139.7296  145.4348  162.6380 C.1     1  UNL1        0.1004
@<TRIPOS>BOND
     1    32    33    3
     2    33    26    1
     3    26    27   ar
     4    27    28   ar
     5    28    29   ar
     6    29    25    1
     7    25    20    1
     8    20    21   ar
     9    21    22   ar
    10    22    23   ar
    11    23    24   ar
    12    24    19    1
    13    19     1    1
    14     3     1    1
    15     3     4    1
    16     4     5    1
    17     5     6    1
    18     6     7   am
    19     7     8    2
    20     7    11    1
    21    11    12   ar
    22    12    13   ar
    23    13    14   ar
    24    14    15   ar
    25    15    16   ar
    26    16    17    1
    27     6     9   am
    28     9    10    2
    29    29    30   ar
    30    30    31   ar
    31    31    26   ar
    32    24    20   ar
    33     9     3    1
    34    16    11   ar
    35     1     2    1
    36    17    18    1
@<TRIPOS>MOLECULE
*****
 33 36 0 0 0
SMALL
GASTEIGER

@<TRIPOS>ATOM
      1 N         137.0320  140.9963  162.9647 N.3     1  UNL1       -0.2863
      2 H         136.4632  141.6901  163.4499 H       1  UNL1        0.1240
      3 C         137.8768  141.7438  161.9761 C.3     1  UNL1        0.1341
      4 C         138.1635  141.3228  160.5652 C.3     1  UNL1        0.0471
      5 C         139.0472  142.3624  159.9419 C.3     1  UNL1        0.1031
      6 N         139.3066  143.4257  160.9675 N.am    1  UNL1       -0.2252
      7 C         140.1426  144.6554  160.7705 C.2     1  UNL1        0.2567
      8 O         140.3123  145.6348  161.8939 O.2     1  UNL1       -0.2694
      9 C         138.5833  143.0434  162.2247 C.2     1  UNL1        0.2459
     10 O         138.5689  143.8237  163.5057 O.2     1  UNL1       -0.2730
     11 C         140.8089  144.9058  159.4501 C.ar    1  UNL1        0.0772
     12 C         140.1554  145.7989  158.4377 C.ar    1  UNL1        0.0081
     13 C         140.8217  146.0494  157.1174 C.ar    1  UNL1        0.0209
     14 C         142.1415  145.4066  156.8095 C.ar    1  UNL1        0.0994
     15 N         142.7951  144.5134  157.8220 N.ar    1  UNL1       -0.2378
     16 C         142.1288  144.2630  159.1423 C.ar    1  UNL1        0.1074
     17 S         142.7824  143.3699  160.1547 S.3     1  UNL1       -0.1226
     18 H         143.9601  142.9063  159.6571 H       1  UNL1        0.1086
     19 C         137.6825  140.1539  164.0218 C.3     1  UNL1        0.1151
     20 N         140.2953  139.6127  163.8634 N.ar    1  UNL1       -0.3070
     21 C         141.1104  138.4517  163.3758 C.ar    1  UNL1        0.1786
     22 N         140.1653  137.3971  162.8810 N.ar    1  UNL1       -0.2226
     23 C         138.7661  137.9065  163.0627 C.ar    1  UNL1        0.1147
     24 C         138.8465  139.2757  163.6699 C.ar    1  UNL1        0.0739
     25 C         140.8344  140.8870  164.4427 C.3     1  UNL1        0.1340
     26 C         140.5643  141.6363  168.8717 C.ar    1  UNL1        0.0684
     27 C         140.5647  142.7910  167.9143 C.ar    1  UNL1        0.0100
     28 C         140.6548  142.5412  166.4380 C.ar    1  UNL1       -0.0017
     29 C         140.7444  141.1367  165.9190 C.ar    1  UNL1        0.0005
     30 C         140.7440  139.9820  166.8764 C.ar    1  UNL1       -0.0017
     31 C         140.6539  140.2318  168.3527 C.ar    1  UNL1        0.0100
     32 N         140.3843  142.1358  171.8243 N.1     1  UNL1       -0.1908
     33 C         140.4743  141.8860  170.3480 C.1     1  UNL1        0.1004
@<TRIPOS>BOND
     1    32    33    3
     2    33    26    1
     3    26    27   ar
     4    27    28   ar
     5    28    29   ar
     6    29    25    1
     7    25    20    1
     8    20    21   ar
     9    21    22   ar
    10    22    23   ar
    11    23    24   ar
    12    24    19    1
    13    19     1    1
    14     3     1    1
    15     3     4    1
    16     4     5    1
    17     5     6    1
    18     6     7   am
    19     7     8    2
    20     7    11    1
    21    11    12   ar
    22    12    13   ar
    23    13    14   ar
    24    14    15   ar
    25    15    16   ar
    26    16    17    1
    27     6     9   am
    28     9    10    2
    29    29    30   ar
    30    30    31   ar
    31    31    26   ar
    32    24    20   ar
    33     9     3    1
    34    16    11   ar
    35     1     2    1
    36    17    18    1
@<TRIPOS>MOLECULE
*****
 33 36 0 0 0
SMALL
GASTEIGER

@<TRIPOS>ATOM
      1 N         141.7761  137.4602  163.0649 N.3     1  UNL1       -0.2863
      2 H         142.7421  137.1803  162.8945 H       1  UNL1        0.1240
      3 C         141.7902  138.3526  164.2705 C.3     1  UNL1        0.1341
      4 C         142.8975  139.2845  164.6647 C.3     1  UNL1        0.0471
      5 C         142.4911  139.9777  165.9314 C.3     1  UNL1        0.1031
      6 N         141.1326  139.4742  166.3198 N.am    1  UNL1       -0.2252
      7 C         140.3454  139.9003  167.5234 C.2     1  UNL1        0.2567
      8 O         138.9928  139.3064  167.7838 O.2     1  UNL1       -0.2694
      9 C         140.6994  138.4699  165.2933 C.2     1  UNL1        0.2459
     10 O         139.4030  137.7153  165.2903 O.2     1  UNL1       -0.2730
     11 C         140.9108  140.9204  168.4668 C.ar    1  UNL1        0.0772
     12 C         140.4994  142.3582  168.3511 C.ar    1  UNL1        0.0081
     13 C         141.0648  143.3783  169.2944 C.ar    1  UNL1        0.0209
     14 C         142.0415  142.9605  170.3534 C.ar    1  UNL1        0.0994
     15 N         142.4529  141.5227  170.4690 N.ar    1  UNL1       -0.2378
     16 C         141.8876  140.5026  169.5258 C.ar    1  UNL1        0.1074
     17 S         142.2989  139.0648  169.6414 S.3     1  UNL1       -0.1226
     18 H         143.1843  138.9275  170.6646 H       1  UNL1        0.1086
     19 C         141.2363  137.9690  161.7612 C.3     1  UNL1        0.1151
     20 N         139.9321  140.2725  161.3893 N.ar    1  UNL1       -0.3070
     21 C         138.5021  140.7116  161.5005 C.ar    1  UNL1        0.1786
     22 N         137.6846  139.5263  161.9212 N.ar    1  UNL1       -0.2226
     23 C         138.6094  138.3547  162.0701 C.ar    1  UNL1        0.1147
     24 C         139.9983  138.8158  161.7414 C.ar    1  UNL1        0.0739
     25 C         141.0921  141.1379  160.9953 C.3     1  UNL1        0.1340
     26 C         143.6611  143.0371  164.1645 C.ar    1  UNL1        0.0684
     27 C         144.2993  142.3213  163.0111 C.ar    1  UNL1        0.0100
     28 C         143.4430  141.6882  161.9547 C.ar    1  UNL1       -0.0017
     29 C         141.9484  141.7710  162.0517 C.ar    1  UNL1        0.0005
     30 C         141.3102  142.4868  163.2051 C.ar    1  UNL1       -0.0017
     31 C         142.1665  143.1198  164.2615 C.ar    1  UNL1        0.0100
     32 N         145.3737  144.3031  166.2773 N.1     1  UNL1       -0.1908
     33 C         144.5174  143.6701  165.2209 C.1     1  UNL1        0.1004
@<TRIPOS>BOND
     1    32    33    3
     2    33    26    1
     3    26    27   ar
     4    27    28   ar
     5    28    29   ar
     6    29    25    1
     7    25    20    1
     8    20    21   ar
     9    21    22   ar
    10    22    23   ar
    11    23    24   ar
    12    24    19    1
    13    19     1    1
    14     3     1    1
    15     3     4    1
    16     4     5    1
    17     5     6    1
    18     6     7   am
    19     7     8    2
    20     7    11    1
    21    11    12   ar
    22    12    13   ar
    23    13    14   ar
    24    14    15   ar
    25    15    16   ar
    26    16    17    1
    27     6     9   am
    28     9    10    2
    29    29    30   ar
    30    30    31   ar
    31    31    26   ar
    32    24    20   ar
    33     9     3    1
    34    16    11   ar
    35     1     2    1
    36    17    18    1
