@<TRIPOS>MOLECULE
*****
 44 48 0 0 0
SMALL
GASTEIGER

@<TRIPOS>ATOM
      1 C         140.7207  141.7326  164.3930 C.ar    1  UNL1        0.1534
      2 N         141.7739  141.2400  163.4453 N.ar    1  UNL1       -0.2279
      3 C         141.6295  141.9966  162.1582 C.ar    1  UNL1        0.1036
      4 C         140.4872  142.9567  162.3103 C.ar    1  UNL1        0.1142
      5 C         139.8859  143.9584  161.3696 C.ar    1  UNL1        0.1432
      6 N         140.4476  144.1216  159.9884 N.pl3   1  UNL1       -0.3414
      7 N         138.7229  144.7970  161.8102 N.ar    1  UNL1       -0.2265
      8 C         138.1612  144.6339  163.1915 C.ar    1  UNL1        0.1193
      9 C         138.7624  143.6321  164.1322 C.ar    1  UNL1        0.1021
     10 N         139.9255  142.7936  163.6916 N.ar    1  UNL1       -0.2865
     11 H         141.2109  143.5712  159.6992 H       1  UNL1        0.1438
     12 H         140.0529  144.7791  159.3710 H       1  UNL1        0.1438
     13 C         141.9136  141.8968  169.4477 C.2     1  UNL1        0.2560
     14 O         142.9490  142.9459  169.1693 O.2     1  UNL1       -0.2721
     15 N         141.0977  141.3312  168.3233 N.am    1  UNL1       -0.2720
     16 C         140.0623  140.2822  168.6017 C.3     1  UNL1        0.1256
     17 C         139.2464  139.7167  167.4773 C.3     1  UNL1        0.1641
     18 O         139.4659  140.2001  166.0744 O.3     1  UNL1       -0.3451
     19 C         140.5012  141.2491  165.7959 C.3     1  UNL1        0.1913
     20 C         141.3172  141.8147  166.9204 C.3     1  UNL1        0.1308
     21 C         141.6941  141.4134  170.8506 C.3     1  UNL1        0.2272
     22 C         139.5705  142.8869  171.1141 C.3     1  UNL1        0.1748
     23 O         140.6842  142.0915  171.7283 O.3     1  UNL1       -0.3417
     24 C         142.4785  141.8234  160.9337 C.ar    1  UNL1        0.0467
     25 C         143.7155  142.6528  160.7553 C.ar    1  UNL1        0.0039
     26 C         144.5645  142.4796  159.5308 C.ar    1  UNL1        0.0047
     27 C         144.1765  141.4770  158.4848 C.ar    1  UNL1        0.0559
     28 C         142.9395  140.6476  158.6632 C.ar    1  UNL1        0.0342
     29 C         142.0905  140.8207  159.8876 C.ar    1  UNL1        0.1417
     30 F         140.8535  139.9913  160.0660 F       1  UNL1       -0.2041
     31 C         145.0255  141.3038  157.2604 C.2     1  UNL1        0.2506
     32 O         145.2060  139.9414  156.6596 O.2     1  UNL1       -0.2698
     33 N         145.6938  142.4931  156.6368 N.am    1  UNL1       -0.2658
     34 H         145.5753  143.3874  157.0311 H       1  UNL1        0.1566
     35 C         146.5428  142.3199  155.4123 C.ar    1  UNL1        0.1343
     36 C         148.0343  142.2256  155.5411 C.ar    1  UNL1        0.0383
     37 C         148.8834  142.0523  154.3167 C.ar    1  UNL1        0.0757
     38 C         148.2409  141.9734  152.9636 C.ar    1  UNL1        0.0246
     39 C         146.7494  142.0676  152.8349 C.ar    1  UNL1        0.1003
     40 N         145.9003  142.2409  154.0592 N.ar    1  UNL1       -0.2290
     41 C         150.3748  141.9581  154.4455 C.3     1  UNL1        0.4187
     42 F         151.8663  141.8638  154.5742 F       1  UNL1       -0.1659
     43 F         150.5077  142.0212  152.9527 F       1  UNL1       -0.1659
     44 F         150.2420  141.8949  155.9382 F       1  UNL1       -0.1659
@<TRIPOS>BOND
     1    22    23    1
     2    23    21    1
     3    21    13    1
     4    13    14    2
     5    13    15   am
     6    15    16    1
     7    16    17    1
     8    17    18    1
     9    18    19    1
    10    19     1    1
    11     1     2   ar
    12     2     3   ar
    13     3    24    1
    14    24    25   ar
    15    25    26   ar
    16    26    27   ar
    17    27    31    1
    18    31    32    2
    19    31    33   am
    20    33    35    1
    21    35    36   ar
    22    36    37   ar
    23    37    41    1
    24    41    42    1
    25    41    43    1
    26    41    44    1
    27    37    38   ar
    28    38    39   ar
    29    39    40   ar
    30    27    28   ar
    31    28    29   ar
    32    29    30    1
    33     3     4   ar
    34     4     5   ar
    35     5     6    1
    36     5     7   ar
    37     7     8   ar
    38     8     9   ar
    39     9    10   ar
    40    19    20    1
    41    20    15    1
    42    10     1   ar
    43    29    24   ar
    44    10     4   ar
    45    40    35   ar
    46    33    34    1
    47     6    11    1
    48     6    12    1
@<TRIPOS>MOLECULE
*****
 44 48 0 0 0
SMALL
GASTEIGER

@<TRIPOS>ATOM
      1 C         142.7121  137.7476  157.2295 C.ar    1  UNL1        0.1534
      2 N         142.2420  137.6138  158.6477 N.ar    1  UNL1       -0.2279
      3 C         142.7001  138.8253  159.4041 C.ar    1  UNL1        0.1036
      4 C         143.4534  139.7080  158.4535 C.ar    1  UNL1        0.1142
      5 C         144.1335  141.0321  158.6381 C.ar    1  UNL1        0.1432
      6 N         144.1261  141.6981  159.9821 N.pl3   1  UNL1       -0.3414
      7 N         144.8210  141.6901  157.4787 N.ar    1  UNL1       -0.2265
      8 C         144.8284  141.0241  156.1347 C.ar    1  UNL1        0.1193
      9 C         144.1483  139.6999  155.9501 C.ar    1  UNL1        0.1021
     10 N         143.4608  139.0419  157.1095 N.ar    1  UNL1       -0.2865
     11 H         143.6748  141.2662  160.7431 H       1  UNL1        0.1438
     12 H         144.5725  142.5672  160.1032 H       1  UNL1        0.1438
     13 C         142.2412  132.8322  155.6120 C.2     1  UNL1        0.2560
     14 O         142.4797  132.3487  157.0117 O.2     1  UNL1       -0.2721
     15 N         142.2397  134.3027  155.3164 N.am    1  UNL1       -0.2720
     16 C         142.0012  134.7862  153.9167 C.3     1  UNL1        0.1256
     17 C         141.9997  136.2568  153.6212 C.3     1  UNL1        0.1641
     18 O         142.2366  137.2439  154.7255 O.3     1  UNL1       -0.3451
     19 C         142.4751  136.7605  156.1252 C.3     1  UNL1        0.1913
     20 C         142.4766  135.2898  156.4207 C.3     1  UNL1        0.1308
     21 C         142.0042  131.8451  154.5077 C.3     1  UNL1        0.2272
     22 C         139.8618  130.3789  154.6100 C.3     1  UNL1        0.1748
     23 O         141.3412  130.5326  154.8043 O.3     1  UNL1       -0.3417
     24 C         142.4491  139.1052  160.8562 C.ar    1  UNL1        0.0467
     25 C         141.3346  140.0236  161.2614 C.ar    1  UNL1        0.0039
     26 C         141.0835  140.3035  162.7135 C.ar    1  UNL1        0.0047
     27 C         141.9471  139.6648  163.7606 C.ar    1  UNL1        0.0559
     28 C         143.0617  138.7463  163.3555 C.ar    1  UNL1        0.0342
     29 C         143.3127  138.4665  161.9034 C.ar    1  UNL1        0.1417
     30 F         144.4273  137.5480  161.4983 F       1  UNL1       -0.2041
     31 C         141.6961  139.9447  165.2127 C.2     1  UNL1        0.2506
     32 O         140.3144  139.7958  165.7772 O.2     1  UNL1       -0.2698
     33 N         142.8267  140.3733  166.1003 N.am    1  UNL1       -0.2658
     34 H         143.7336  140.4710  165.7298 H       1  UNL1        0.1566
     35 C         142.5756  140.6532  167.5524 C.ar    1  UNL1        0.1343
     36 C         141.9940  141.9704  167.9727 C.ar    1  UNL1        0.0383
     37 C         141.7428  142.2503  169.4248 C.ar    1  UNL1        0.0757
     38 C         142.0734  141.2130  170.4565 C.ar    1  UNL1        0.0246
     39 C         142.6550  139.8957  170.0363 C.ar    1  UNL1        0.1003
     40 N         142.9061  139.6158  168.5842 N.ar    1  UNL1       -0.2290
     41 C         141.1612  143.5675  169.8450 C.3     1  UNL1        0.4187
     42 F         140.5796  144.8848  170.2653 F       1  UNL1       -0.1659
     43 F         139.8851  143.2315  169.1319 F       1  UNL1       -0.1659
     44 F         142.4374  143.9035  170.5581 F       1  UNL1       -0.1659
@<TRIPOS>BOND
     1    22    23    1
     2    23    21    1
     3    21    13    1
     4    13    14    2
     5    13    15   am
     6    15    16    1
     7    16    17    1
     8    17    18    1
     9    18    19    1
    10    19     1    1
    11     1     2   ar
    12     2     3   ar
    13     3    24    1
    14    24    25   ar
    15    25    26   ar
    16    26    27   ar
    17    27    31    1
    18    31    32    2
    19    31    33   am
    20    33    35    1
    21    35    36   ar
    22    36    37   ar
    23    37    41    1
    24    41    42    1
    25    41    43    1
    26    41    44    1
    27    37    38   ar
    28    38    39   ar
    29    39    40   ar
    30    27    28   ar
    31    28    29   ar
    32    29    30    1
    33     3     4   ar
    34     4     5   ar
    35     5     6    1
    36     5     7   ar
    37     7     8   ar
    38     8     9   ar
    39     9    10   ar
    40    19    20    1
    41    20    15    1
    42    10     1   ar
    43    29    24   ar
    44    10     4   ar
    45    40    35   ar
    46    33    34    1
    47     6    11    1
    48     6    12    1
@<TRIPOS>MOLECULE
*****
 44 48 0 0 0
SMALL
GASTEIGER

@<TRIPOS>ATOM
      1 C         139.5559  144.7830  157.1625 C.ar    1  UNL1        0.1534
      2 N         140.0373  144.8224  158.5826 N.ar    1  UNL1       -0.2279
      3 C         139.6146  143.5476  159.2507 C.ar    1  UNL1        0.1036
      4 C         138.8720  142.7204  158.2436 C.ar    1  UNL1        0.1142
      5 C         138.2243  141.3706  158.3350 C.ar    1  UNL1        0.1432
      6 N         138.2606  140.6072  159.6257 N.pl3   1  UNL1       -0.3414
      7 N         137.5401  140.7844  157.1358 N.ar    1  UNL1       -0.2265
      8 C         137.5038  141.5478  155.8452 C.ar    1  UNL1        0.1193
      9 C         138.1516  142.8976  155.7537 C.ar    1  UNL1        0.1021
     10 N         138.8357  143.4839  156.9530 N.ar    1  UNL1       -0.2865
     11 H         138.7096  140.9920  160.4128 H       1  UNL1        0.1438
     12 H         137.8354  139.7212  159.6857 H       1  UNL1        0.1438
     13 C         138.8806  149.6843  155.5748 C.2     1  UNL1        0.2560
     14 O         138.1369  149.9919  156.8406 O.2     1  UNL1       -0.2721
     15 N         139.4213  148.3052  155.3387 N.am    1  UNL1       -0.2720
     16 C         140.1650  147.9977  154.0729 C.3     1  UNL1        0.1256
     17 C         140.7057  146.6185  153.8370 C.3     1  UNL1        0.1641
     18 O         140.5026  145.5470  154.8669 O.3     1  UNL1       -0.3451
     19 C         139.7589  145.8545  156.1326 C.3     1  UNL1        0.1913
     20 C         139.2182  147.2337  156.3686 C.3     1  UNL1        0.1308
     21 C         139.0837  150.7559  154.5449 C.3     1  UNL1        0.2272
     22 C         141.5842  151.4578  154.4732 C.3     1  UNL1        0.1748
     23 O         140.1476  151.7946  154.7431 O.3     1  UNL1       -0.3417
     24 C         139.8868  143.1669  160.6759 C.ar    1  UNL1        0.0467
     25 C         138.8509  143.4197  161.7307 C.ar    1  UNL1        0.0039
     26 C         139.1230  143.0389  163.1558 C.ar    1  UNL1        0.0047
     27 C         140.4313  142.4054  163.5261 C.ar    1  UNL1        0.0559
     28 C         141.4673  142.1526  162.4713 C.ar    1  UNL1        0.0342
     29 C         141.1952  142.5333  161.0462 C.ar    1  UNL1        0.1417
     30 F         142.2312  142.2806  159.9913 F       1  UNL1       -0.2041
     31 C         140.7035  142.0247  164.9512 C.2     1  UNL1        0.2506
     32 O         139.6033  142.0917  165.9686 O.2     1  UNL1       -0.2698
     33 N         142.0758  141.5770  165.3589 N.am    1  UNL1       -0.2658
     34 H         142.7979  141.5330  164.6912 H       1  UNL1        0.1566
     35 C         142.3479  141.1963  166.7841 C.ar    1  UNL1        0.1343
     36 C         142.7196  142.2507  167.7841 C.ar    1  UNL1        0.0383
     37 C         142.9917  141.8701  169.2093 C.ar    1  UNL1        0.0757
     38 C         142.8921  140.4350  169.6344 C.ar    1  UNL1        0.0246
     39 C         142.5204  139.3806  168.6344 C.ar    1  UNL1        0.1003
     40 N         142.2482  139.7613  167.2092 N.ar    1  UNL1       -0.2290
     41 C         143.3634  142.9245  170.2093 C.3     1  UNL1        0.4187
     42 F         143.7351  143.9789  171.2093 F       1  UNL1       -0.1659
     43 F         144.8044  142.5234  170.0966 F       1  UNL1       -0.1659
     44 F         141.9225  143.3256  170.3220 F       1  UNL1       -0.1659
@<TRIPOS>BOND
     1    22    23    1
     2    23    21    1
     3    21    13    1
     4    13    14    2
     5    13    15   am
     6    15    16    1
     7    16    17    1
     8    17    18    1
     9    18    19    1
    10    19     1    1
    11     1     2   ar
    12     2     3   ar
    13     3    24    1
    14    24    25   ar
    15    25    26   ar
    16    26    27   ar
    17    27    31    1
    18    31    32    2
    19    31    33   am
    20    33    35    1
    21    35    36   ar
    22    36    37   ar
    23    37    41    1
    24    41    42    1
    25    41    43    1
    26    41    44    1
    27    37    38   ar
    28    38    39   ar
    29    39    40   ar
    30    27    28   ar
    31    28    29   ar
    32    29    30    1
    33     3     4   ar
    34     4     5   ar
    35     5     6    1
    36     5     7   ar
    37     7     8   ar
    38     8     9   ar
    39     9    10   ar
    40    19    20    1
    41    20    15    1
    42    10     1   ar
    43    29    24   ar
    44    10     4   ar
    45    40    35   ar
    46    33    34    1
    47     6    11    1
    48     6    12    1
@<TRIPOS>MOLECULE
*****
 44 48 0 0 0
SMALL
GASTEIGER

@<TRIPOS>ATOM
      1 C         140.3464  140.5750  164.8726 C.ar    1  UNL1        0.1534
      2 N         140.3314  141.8471  164.0779 N.ar    1  UNL1       -0.2279
      3 C         140.6300  141.5042  162.6486 C.ar    1  UNL1        0.1036
      4 C         140.8296  140.0201  162.5598 C.ar    1  UNL1        0.1142
      5 C         141.1483  139.1175  161.4050 C.ar    1  UNL1        0.1432
      6 N         141.3236  139.6918  160.0304 N.pl3   1  UNL1       -0.3414
      7 N         141.2917  137.6407  161.6247 N.ar    1  UNL1       -0.2265
      8 C         141.1164  137.0665  162.9993 C.ar    1  UNL1        0.1193
      9 C         140.7977  137.9691  164.1542 C.ar    1  UNL1        0.1021
     10 N         140.6543  139.4459  163.9344 N.ar    1  UNL1       -0.2865
     11 H         141.2295  140.6611  159.8862 H       1  UNL1        0.1438
     12 H         141.5328  139.0994  159.2724 H       1  UNL1        0.1438
     13 C         141.7144  141.6415  169.7707 C.2     1  UNL1        0.2560
     14 O         142.8967  142.4180  169.2715 O.2     1  UNL1       -0.2721
     15 N         140.7813  140.9866  168.7959 N.am    1  UNL1       -0.2720
     16 C         139.5990  140.2102  169.2952 C.3     1  UNL1        0.1256
     17 C         138.6659  139.5553  168.3203 C.3     1  UNL1        0.1641
     18 O         138.9150  139.6769  166.8461 O.3     1  UNL1       -0.3451
     19 C         140.0972  140.4534  166.3468 C.3     1  UNL1        0.1913
     20 C         141.0304  141.1083  167.3218 C.3     1  UNL1        0.1308
     21 C         141.4653  141.5199  171.2449 C.3     1  UNL1        0.2272
     22 C         139.5680  143.2863  171.0704 C.3     1  UNL1        0.1748
     23 O         140.4041  142.3554  171.8976 O.3     1  UNL1       -0.3417
     24 C         140.7143  142.4748  161.5080 C.ar    1  UNL1        0.0467
     25 C         141.9853  143.2315  161.2595 C.ar    1  UNL1        0.0039
     26 C         142.0695  144.2022  160.1190 C.ar    1  UNL1        0.0047
     27 C         140.8827  144.4161  159.2270 C.ar    1  UNL1        0.0559
     28 C         139.6117  143.6594  159.4755 C.ar    1  UNL1        0.0342
     29 C         139.5274  142.6887  160.6160 C.ar    1  UNL1        0.1417
     30 F         138.2563  141.9320  160.8644 F       1  UNL1       -0.2041
     31 C         140.9670  145.3868  158.0865 C.2     1  UNL1        0.2506
     32 O         142.2264  146.1690  157.8590 O.2     1  UNL1       -0.2698
     33 N         139.7918  145.5751  157.1735 N.am    1  UNL1       -0.2658
     34 H         138.9652  145.0616  157.3228 H       1  UNL1        0.1566
     35 C         139.8762  146.5458  156.0330 C.ar    1  UNL1        0.1343
     36 C         139.2477  147.9023  156.1547 C.ar    1  UNL1        0.0383
     37 C         139.3320  148.8730  155.0143 C.ar    1  UNL1        0.0757
     38 C         140.0448  148.4872  153.7522 C.ar    1  UNL1        0.0246
     39 C         140.6733  147.1306  153.6305 C.ar    1  UNL1        0.1003
     40 N         140.5890  146.1599  154.7709 N.ar    1  UNL1       -0.2290
     41 C         138.7035  150.2295  155.1360 C.3     1  UNL1        0.4187
     42 F         138.0750  151.5861  155.2577 F       1  UNL1       -0.1659
     43 F         138.1855  149.8675  156.4964 F       1  UNL1       -0.1659
     44 F         139.2215  150.5916  153.7757 F       1  UNL1       -0.1659
@<TRIPOS>BOND
     1    22    23    1
     2    23    21    1
     3    21    13    1
     4    13    14    2
     5    13    15   am
     6    15    16    1
     7    16    17    1
     8    17    18    1
     9    18    19    1
    10    19     1    1
    11     1     2   ar
    12     2     3   ar
    13     3    24    1
    14    24    25   ar
    15    25    26   ar
    16    26    27   ar
    17    27    31    1
    18    31    32    2
    19    31    33   am
    20    33    35    1
    21    35    36   ar
    22    36    37   ar
    23    37    41    1
    24    41    42    1
    25    41    43    1
    26    41    44    1
    27    37    38   ar
    28    38    39   ar
    29    39    40   ar
    30    27    28   ar
    31    28    29   ar
    32    29    30    1
    33     3     4   ar
    34     4     5   ar
    35     5     6    1
    36     5     7   ar
    37     7     8   ar
    38     8     9   ar
    39     9    10   ar
    40    19    20    1
    41    20    15    1
    42    10     1   ar
    43    29    24   ar
    44    10     4   ar
    45    40    35   ar
    46    33    34    1
    47     6    11    1
    48     6    12    1
@<TRIPOS>MOLECULE
*****
 44 48 0 0 0
SMALL
GASTEIGER

@<TRIPOS>ATOM
      1 C         139.3364  144.7070  156.4187 C.ar    1  UNL1        0.1534
      2 N         139.7948  144.5087  157.8331 N.ar    1  UNL1       -0.2279
      3 C         139.2738  143.1846  158.3078 C.ar    1  UNL1        0.1036
      4 C         138.4933  142.5647  157.1869 C.ar    1  UNL1        0.1142
      5 C         137.7524  141.2650  157.0785 C.ar    1  UNL1        0.1432
      6 N         137.7138  140.3241  158.2460 N.pl3   1  UNL1       -0.3414
      7 N         137.0502  140.9062  155.8025 N.ar    1  UNL1       -0.2265
      8 C         137.0888  141.8471  154.6350 C.ar    1  UNL1        0.1193
      9 C         137.8297  143.1468  154.7434 C.ar    1  UNL1        0.1021
     10 N         138.5320  143.5056  156.0193 N.ar    1  UNL1       -0.2865
     11 H         138.1747  140.5596  159.0835 H       1  UNL1        0.1438
     12 H         137.2275  139.4710  158.1749 H       1  UNL1        0.1438
     13 C         138.8697  149.7915  155.4541 C.2     1  UNL1        0.2560
     14 O         138.0479  149.9522  156.6986 O.2     1  UNL1       -0.2721
     15 N         139.3972  148.4401  155.0729 N.am    1  UNL1       -0.2720
     16 C         140.2190  148.2794  153.8284 C.3     1  UNL1        0.1256
     17 C         140.7465  146.9279  153.4473 C.3     1  UNL1        0.1641
     18 O         140.4523  145.7372  154.3108 O.3     1  UNL1       -0.3451
     19 C         139.6306  145.8978  155.5552 C.3     1  UNL1        0.1913
     20 C         139.1030  147.2493  155.9364 C.3     1  UNL1        0.1308
     21 C         139.1639  150.9823  154.5906 C.3     1  UNL1        0.2272
     22 C         141.6925  151.5729  154.5027 C.3     1  UNL1        0.1748
     23 O         140.2962  151.9016  154.9413 O.3     1  UNL1       -0.3417
     24 C         139.4945  142.5856  159.6652 C.ar    1  UNL1        0.0467
     25 C         138.4583  142.7536  160.7366 C.ar    1  UNL1        0.0039
     26 C         138.6790  142.1546  162.0940 C.ar    1  UNL1        0.0047
     27 C         139.9360  141.3876  162.3800 C.ar    1  UNL1        0.0559
     28 C         140.9722  141.2196  161.3086 C.ar    1  UNL1        0.0342
     29 C         140.7515  141.8186  159.9512 C.ar    1  UNL1        0.1417
     30 F         141.7878  141.6506  158.8798 F       1  UNL1       -0.2041
     31 C         140.1567  140.7886  163.7374 C.2     1  UNL1        0.2506
     32 O         139.7589  139.3671  164.0034 O.2     1  UNL1       -0.2698
     33 N         140.7751  141.6112  164.8286 N.am    1  UNL1       -0.2658
     34 H         141.0362  142.5443  164.6540 H       1  UNL1        0.1566
     35 C         140.9958  141.0122  166.1860 C.ar    1  UNL1        0.1343
     36 C         139.8540  140.9043  167.1528 C.ar    1  UNL1        0.0383
     37 C         140.0745  140.3053  168.5102 C.ar    1  UNL1        0.0757
     38 C         141.4369  139.8141  168.9007 C.ar    1  UNL1        0.0246
     39 C         142.5787  139.9219  167.9339 C.ar    1  UNL1        0.1003
     40 N         142.3582  140.5210  166.5766 N.ar    1  UNL1       -0.2290
     41 C         138.9327  140.1975  169.4769 C.3     1  UNL1        0.4187
     42 F         137.7909  140.0896  170.4437 F       1  UNL1       -0.1659
     43 F         139.6989  141.0163  170.4732 F       1  UNL1       -0.1659
     44 F         138.1666  139.3786  168.4807 F       1  UNL1       -0.1659
@<TRIPOS>BOND
     1    22    23    1
     2    23    21    1
     3    21    13    1
     4    13    14    2
     5    13    15   am
     6    15    16    1
     7    16    17    1
     8    17    18    1
     9    18    19    1
    10    19     1    1
    11     1     2   ar
    12     2     3   ar
    13     3    24    1
    14    24    25   ar
    15    25    26   ar
    16    26    27   ar
    17    27    31    1
    18    31    32    2
    19    31    33   am
    20    33    35    1
    21    35    36   ar
    22    36    37   ar
    23    37    41    1
    24    41    42    1
    25    41    43    1
    26    41    44    1
    27    37    38   ar
    28    38    39   ar
    29    39    40   ar
    30    27    28   ar
    31    28    29   ar
    32    29    30    1
    33     3     4   ar
    34     4     5   ar
    35     5     6    1
    36     5     7   ar
    37     7     8   ar
    38     8     9   ar
    39     9    10   ar
    40    19    20    1
    41    20    15    1
    42    10     1   ar
    43    29    24   ar
    44    10     4   ar
    45    40    35   ar
    46    33    34    1
    47     6    11    1
    48     6    12    1
@<TRIPOS>MOLECULE
*****
 44 48 0 0 0
SMALL
GASTEIGER

@<TRIPOS>ATOM
      1 C         141.2365  140.7131  164.5556 C.ar    1  UNL1        0.1534
      2 N         141.5172  141.9381  163.7368 N.ar    1  UNL1       -0.2279
      3 C         140.9306  141.7280  162.3723 C.ar    1  UNL1        0.1036
      4 C         140.2874  140.3731  162.3479 C.ar    1  UNL1        0.1142
      5 C         139.5540  139.6295  161.2713 C.ar    1  UNL1        0.1432
      6 N         139.3649  140.2568  159.9219 N.pl3   1  UNL1       -0.3414
      7 N         139.0096  138.2587  161.5440 N.ar    1  UNL1       -0.2265
      8 C         139.1987  137.6314  162.8934 C.ar    1  UNL1        0.1193
      9 C         139.9321  138.3750  163.9700 C.ar    1  UNL1        0.1021
     10 N         140.4765  139.7459  163.6973 N.ar    1  UNL1       -0.2865
     11 H         139.7222  141.1565  159.7429 H       1  UNL1        0.1438
     12 H         138.8835  139.7687  159.2153 H       1  UNL1        0.1438
     13 C         141.1451  142.1830  169.5387 C.2     1  UNL1        0.2560
     14 O         140.2839  143.3566  169.1767 O.2     1  UNL1       -0.2721
     15 N         141.5986  141.2287  168.4740 N.am    1  UNL1       -0.2720
     16 C         142.4598  140.0552  168.8359 C.3     1  UNL1        0.1256
     17 C         142.9132  139.1009  167.7711 C.3     1  UNL1        0.1641
     18 O         142.5055  139.3203  166.3444 O.3     1  UNL1       -0.3451
     19 C         141.6443  140.4938  165.9824 C.3     1  UNL1        0.1913
     20 C         141.1908  141.4481  167.0472 C.3     1  UNL1        0.1308
     21 C         141.5529  141.9637  170.9655 C.3     1  UNL1        0.2272
     22 C         140.0211  139.8890  171.2813 C.3     1  UNL1        0.1748
     23 O         140.7268  141.0821  171.8546 O.3     1  UNL1       -0.3417
     24 C         140.9787  142.7018  161.2324 C.ar    1  UNL1        0.0467
     25 C         139.9464  143.7848  161.1271 C.ar    1  UNL1        0.0039
     26 C         139.9945  144.7586  159.9871 C.ar    1  UNL1        0.0047
     27 C         141.0750  144.6494  158.9525 C.ar    1  UNL1        0.0559
     28 C         142.1074  143.5663  159.0578 C.ar    1  UNL1        0.0342
     29 C         142.0593  142.5925  160.1977 C.ar    1  UNL1        0.1417
     30 F         143.0917  141.5094  160.3030 F       1  UNL1       -0.2041
     31 C         141.1232  145.6232  157.8126 C.2     1  UNL1        0.2506
     32 O         142.4116  146.3082  157.4654 O.2     1  UNL1       -0.2698
     33 N         139.8829  145.9118  157.0199 N.am    1  UNL1       -0.2658
     34 H         139.0373  145.4622  157.2478 H       1  UNL1        0.1566
     35 C         139.9311  146.8856  155.8800 C.ar    1  UNL1        0.1343
     36 C         139.2742  148.2277  156.0118 C.ar    1  UNL1        0.0383
     37 C         139.3224  149.2015  154.8720 C.ar    1  UNL1        0.0757
     38 C         140.0275  148.8333  153.6003 C.ar    1  UNL1        0.0246
     39 C         140.6844  147.4913  153.4684 C.ar    1  UNL1        0.1003
     40 N         140.6362  146.5174  154.6083 N.ar    1  UNL1       -0.2290
     41 C         138.6655  150.5436  155.0038 C.3     1  UNL1        0.4187
     42 F         138.0085  151.8856  155.1357 F       1  UNL1       -0.1659
     43 F         137.9434  150.0696  156.2302 F       1  UNL1       -0.1659
     44 F         139.3875  151.0175  153.7774 F       1  UNL1       -0.1659
@<TRIPOS>BOND
     1    22    23    1
     2    23    21    1
     3    21    13    1
     4    13    14    2
     5    13    15   am
     6    15    16    1
     7    16    17    1
     8    17    18    1
     9    18    19    1
    10    19     1    1
    11     1     2   ar
    12     2     3   ar
    13     3    24    1
    14    24    25   ar
    15    25    26   ar
    16    26    27   ar
    17    27    31    1
    18    31    32    2
    19    31    33   am
    20    33    35    1
    21    35    36   ar
    22    36    37   ar
    23    37    41    1
    24    41    42    1
    25    41    43    1
    26    41    44    1
    27    37    38   ar
    28    38    39   ar
    29    39    40   ar
    30    27    28   ar
    31    28    29   ar
    32    29    30    1
    33     3     4   ar
    34     4     5   ar
    35     5     6    1
    36     5     7   ar
    37     7     8   ar
    38     8     9   ar
    39     9    10   ar
    40    19    20    1
    41    20    15    1
    42    10     1   ar
    43    29    24   ar
    44    10     4   ar
    45    40    35   ar
    46    33    34    1
    47     6    11    1
    48     6    12    1
@<TRIPOS>MOLECULE
*****
 44 48 0 0 0
SMALL
GASTEIGER

@<TRIPOS>ATOM
      1 C         137.8181  140.3742  156.9881 C.ar    1  UNL1        0.1534
      2 N         137.8936  140.8224  158.4176 N.ar    1  UNL1       -0.2279
      3 C         139.0781  140.1546  159.0507 C.ar    1  UNL1        0.1036
      4 C         139.7347  139.2937  158.0126 C.ar    1  UNL1        0.1142
      5 C         140.9411  138.4037  158.0633 C.ar    1  UNL1        0.1432
      6 N         141.7199  138.2680  159.3381 N.pl3   1  UNL1       -0.3414
      7 N         141.3687  137.6495  156.8393 N.ar    1  UNL1       -0.2265
      8 C         140.5899  137.7853  155.5645 C.ar    1  UNL1        0.1193
      9 C         139.3836  138.6752  155.5138 C.ar    1  UNL1        0.1021
     10 N         138.9560  139.4294  156.7378 N.ar    1  UNL1       -0.2865
     11 H         141.4392  138.7630  160.1415 H       1  UNL1        0.1438
     12 H         142.5117  137.6839  159.3715 H       1  UNL1        0.1438
     13 C         132.8377  141.0351  155.6621 C.2     1  UNL1        0.2560
     14 O         132.4118  140.5206  157.0052 O.2     1  UNL1       -0.2721
     15 N         134.2957  141.1271  155.3220 N.am    1  UNL1       -0.2720
     16 C         134.7215  141.6415  153.9788 C.3     1  UNL1        0.1256
     17 C         136.1796  141.7335  153.6388 C.3     1  UNL1        0.1641
     18 O         137.2117  141.3110  154.6419 O.3     1  UNL1       -0.3451
     19 C         136.7860  140.7966  155.9850 C.3     1  UNL1        0.1913
     20 C         135.3278  140.7046  156.3251 C.3     1  UNL1        0.1308
     21 C         131.8055  141.4575  154.6590 C.3     1  UNL1        0.2272
     22 C         129.9013  143.2133  154.8627 C.3     1  UNL1        0.1748
     23 O         130.4258  141.8307  155.1142 O.3     1  UNL1       -0.3417
     24 C         139.5273  140.3188  160.4724 C.ar    1  UNL1        0.0467
     25 C         140.5183  141.3873  160.8273 C.ar    1  UNL1        0.0039
     26 C         140.9675  141.5516  162.2490 C.ar    1  UNL1        0.0047
     27 C         140.4255  140.6472  163.3160 C.ar    1  UNL1        0.0559
     28 C         139.4345  139.5786  162.9612 C.ar    1  UNL1        0.0342
     29 C         138.9853  139.4144  161.5395 C.ar    1  UNL1        0.1417
     30 F         137.9942  138.3458  161.1847 F       1  UNL1       -0.2041
     31 C         140.8747  140.8115  164.7377 C.2     1  UNL1        0.2506
     32 O         141.1113  139.6027  165.5938 O.2     1  UNL1       -0.2698
     33 N         141.0871  142.1844  165.3033 N.am    1  UNL1       -0.2658
     34 H         140.9318  142.9777  164.7414 H       1  UNL1        0.1566
     35 C         141.5363  142.3485  166.7250 C.ar    1  UNL1        0.1343
     36 C         140.5429  142.7142  167.7879 C.ar    1  UNL1        0.0383
     37 C         140.9920  142.8783  169.2096 C.ar    1  UNL1        0.0757
     38 C         142.4344  142.6768  169.5685 C.ar    1  UNL1        0.0246
     39 C         143.4277  142.3112  168.5057 C.ar    1  UNL1        0.1003
     40 N         142.9787  142.1470  167.0839 N.ar    1  UNL1       -0.2290
     41 C         139.9987  143.2440  170.2724 C.3     1  UNL1        0.4187
     42 F         139.0053  143.6096  171.3352 F       1  UNL1       -0.1659
     43 F         140.4001  144.6842  170.1521 F       1  UNL1       -0.1659
     44 F         139.5972  141.8037  170.3927 F       1  UNL1       -0.1659
@<TRIPOS>BOND
     1    22    23    1
     2    23    21    1
     3    21    13    1
     4    13    14    2
     5    13    15   am
     6    15    16    1
     7    16    17    1
     8    17    18    1
     9    18    19    1
    10    19     1    1
    11     1     2   ar
    12     2     3   ar
    13     3    24    1
    14    24    25   ar
    15    25    26   ar
    16    26    27   ar
    17    27    31    1
    18    31    32    2
    19    31    33   am
    20    33    35    1
    21    35    36   ar
    22    36    37   ar
    23    37    41    1
    24    41    42    1
    25    41    43    1
    26    41    44    1
    27    37    38   ar
    28    38    39   ar
    29    39    40   ar
    30    27    28   ar
    31    28    29   ar
    32    29    30    1
    33     3     4   ar
    34     4     5   ar
    35     5     6    1
    36     5     7   ar
    37     7     8   ar
    38     8     9   ar
    39     9    10   ar
    40    19    20    1
    41    20    15    1
    42    10     1   ar
    43    29    24   ar
    44    10     4   ar
    45    40    35   ar
    46    33    34    1
    47     6    11    1
    48     6    12    1
@<TRIPOS>MOLECULE
*****
 44 48 0 0 0
SMALL
GASTEIGER

@<TRIPOS>ATOM
      1 C         145.0492  141.7093  156.8116 C.ar    1  UNL1        0.1534
      2 N         144.8475  142.3563  158.1498 N.ar    1  UNL1       -0.2279
      3 C         144.0625  141.4097  159.0086 C.ar    1  UNL1        0.1036
      4 C         143.7790  140.1777  158.2013 C.ar    1  UNL1        0.1142
      5 C         143.0444  138.9111  158.5271 C.ar    1  UNL1        0.1432
      6 N         142.4346  138.7259  159.8850 N.pl3   1  UNL1       -0.3414
      7 N         142.9197  137.8298  157.4951 N.ar    1  UNL1       -0.2265
      8 C         143.5295  138.0150  156.1372 C.ar    1  UNL1        0.1193
      9 C         144.2641  139.2815  155.8114 C.ar    1  UNL1        0.1021
     10 N         144.3889  140.3629  156.8434 N.ar    1  UNL1       -0.2865
     11 H         142.5165  139.4357  160.5623 H       1  UNL1        0.1438
     12 H         141.9524  137.8946  160.0988 H       1  UNL1        0.1438
     13 C         149.4515  142.3864  154.1355 C.2     1  UNL1        0.2560
     14 O         150.1859  141.5349  155.1282 O.2     1  UNL1       -0.2721
     15 N         147.9837  142.6429  154.3081 N.am    1  UNL1       -0.2720
     16 C         147.2493  143.4943  153.3153 C.3     1  UNL1        0.1256
     17 C         145.7815  143.7508  153.4880 C.3     1  UNL1        0.1641
     18 O         145.0482  143.1558  154.6534 O.3     1  UNL1       -0.3451
     19 C         145.7825  142.3043  155.6462 C.3     1  UNL1        0.1913
     20 C         147.2504  142.0479  155.4735 C.3     1  UNL1        0.1308
     21 C         150.1848  142.9814  152.9700 C.3     1  UNL1        0.2272
     22 C         152.3921  144.2459  153.4986 C.3     1  UNL1        0.1748
     23 O         150.9369  144.2687  153.1352 O.3     1  UNL1       -0.3417
     24 C         143.6358  141.6524  160.4260 C.ar    1  UNL1        0.0467
     25 C         144.4042  141.0353  161.5568 C.ar    1  UNL1        0.0039
     26 C         143.9775  141.2780  162.9742 C.ar    1  UNL1        0.0047
     27 C         142.7824  142.1379  163.2608 C.ar    1  UNL1        0.0559
     28 C         142.0139  142.7551  162.1301 C.ar    1  UNL1        0.0342
     29 C         142.4406  142.5124  160.7127 C.ar    1  UNL1        0.1417
     30 F         141.6722  143.1295  159.5820 F       1  UNL1       -0.2041
     31 C         142.3557  142.3806  164.6783 C.2     1  UNL1        0.2506
     32 O         141.4319  143.5180  164.9990 O.2     1  UNL1       -0.2698
     33 N         142.8528  141.4860  165.7748 N.am    1  UNL1       -0.2658
     34 H         143.4592  140.7395  165.5643 H       1  UNL1        0.1566
     35 C         142.4261  141.7288  167.1922 C.ar    1  UNL1        0.1343
     36 C         141.1194  141.1824  167.6861 C.ar    1  UNL1        0.0383
     37 C         140.6926  141.4252  169.1034 C.ar    1  UNL1        0.0757
     38 C         141.5725  142.2143  170.0269 C.ar    1  UNL1        0.0246
     39 C         142.8792  142.7608  169.5331 C.ar    1  UNL1        0.1003
     40 N         143.3061  142.5180  168.1157 N.ar    1  UNL1       -0.2290
     41 C         139.3858  140.8787  169.5973 C.3     1  UNL1        0.4187
     42 F         138.0791  140.3323  170.0911 F       1  UNL1       -0.1659
     43 F         139.5793  139.6537  168.7536 F       1  UNL1       -0.1659
     44 F         139.1924  142.1038  170.4410 F       1  UNL1       -0.1659
@<TRIPOS>BOND
     1    22    23    1
     2    23    21    1
     3    21    13    1
     4    13    14    2
     5    13    15   am
     6    15    16    1
     7    16    17    1
     8    17    18    1
     9    18    19    1
    10    19     1    1
    11     1     2   ar
    12     2     3   ar
    13     3    24    1
    14    24    25   ar
    15    25    26   ar
    16    26    27   ar
    17    27    31    1
    18    31    32    2
    19    31    33   am
    20    33    35    1
    21    35    36   ar
    22    36    37   ar
    23    37    41    1
    24    41    42    1
    25    41    43    1
    26    41    44    1
    27    37    38   ar
    28    38    39   ar
    29    39    40   ar
    30    27    28   ar
    31    28    29   ar
    32    29    30    1
    33     3     4   ar
    34     4     5   ar
    35     5     6    1
    36     5     7   ar
    37     7     8   ar
    38     8     9   ar
    39     9    10   ar
    40    19    20    1
    41    20    15    1
    42    10     1   ar
    43    29    24   ar
    44    10     4   ar
    45    40    35   ar
    46    33    34    1
    47     6    11    1
    48     6    12    1
@<TRIPOS>MOLECULE
*****
 44 48 0 0 0
SMALL
GASTEIGER

@<TRIPOS>ATOM
      1 C         139.6592  139.5979  157.1638 C.ar    1  UNL1        0.1534
      2 N         139.4454  139.8523  158.6265 N.ar    1  UNL1       -0.2279
      3 C         140.7870  139.8543  159.2975 C.ar    1  UNL1        0.1036
      4 C         141.8299  139.6012  158.2494 C.ar    1  UNL1        0.1142
      5 C         143.3241  139.4946  158.3255 C.ar    1  UNL1        0.1432
      6 N         144.0212  139.6531  159.6442 N.pl3   1  UNL1       -0.3414
      7 N         144.1213  139.2295  157.0829 N.ar    1  UNL1       -0.2265
      8 C         143.4242  139.0710  155.7642 C.ar    1  UNL1        0.1193
      9 C         141.9300  139.1776  155.6881 C.ar    1  UNL1        0.1021
     10 N         141.1328  139.4428  156.9307 N.ar    1  UNL1       -0.2865
     11 H         143.4979  139.8271  160.4598 H       1  UNL1        0.1438
     12 H         145.0019  139.5831  159.6942 H       1  UNL1        0.1438
     13 C         135.9996  141.8924  154.2753 C.2     1  UNL1        0.2560
     14 O         136.3133  143.2083  154.9232 O.2     1  UNL1       -0.2721
     15 N         136.7576  140.6608  154.6735 N.am    1  UNL1       -0.2720
     16 C         136.4439  139.3448  154.0256 C.3     1  UNL1        0.1256
     17 C         137.2019  138.1132  154.4238 C.3     1  UNL1        0.1641
     18 O         138.2737  138.1976  155.4698 O.3     1  UNL1       -0.3451
     19 C         138.5874  139.5135  156.1177 C.3     1  UNL1        0.1913
     20 C         137.8293  140.7452  155.7195 C.3     1  UNL1        0.1308
     21 C         134.9279  141.8080  153.2293 C.3     1  UNL1        0.2272
     22 C         133.1560  141.2752  155.0533 C.3     1  UNL1        0.1748
     23 O         133.5435  141.3710  153.6074 O.3     1  UNL1       -0.3417
     24 C         141.0411  140.0714  160.7598 C.ar    1  UNL1        0.0467
     25 C         140.9503  141.4515  161.3401 C.ar    1  UNL1        0.0039
     26 C         141.2045  141.6685  162.8024 C.ar    1  UNL1        0.0047
     27 C         141.5494  140.5054  163.6844 C.ar    1  UNL1        0.0559
     28 C         141.6403  139.1251  163.1041 C.ar    1  UNL1        0.0342
     29 C         141.3861  138.9081  161.6418 C.ar    1  UNL1        0.1417
     30 F         141.4770  137.5279  161.0616 F       1  UNL1       -0.2041
     31 C         141.8036  140.7224  165.1467 C.2     1  UNL1        0.2506
     32 O         142.0693  139.5500  166.0438 O.2     1  UNL1       -0.2698
     33 N         141.7920  142.1118  165.7119 N.am    1  UNL1       -0.2658
     34 H         141.6176  142.8813  165.1230 H       1  UNL1        0.1566
     35 C         142.0461  142.3288  167.1742 C.ar    1  UNL1        0.1343
     36 C         140.9106  142.6823  168.0883 C.ar    1  UNL1        0.0383
     37 C         141.1647  142.8993  169.5507 C.ar    1  UNL1        0.0757
     38 C         142.5542  142.7627  170.0988 C.ar    1  UNL1        0.0246
     39 C         143.6897  142.4091  169.1846 C.ar    1  UNL1        0.1003
     40 N         143.4357  142.1921  167.7223 N.ar    1  UNL1       -0.2290
     41 C         140.0292  143.2529  170.4648 C.3     1  UNL1        0.4187
     42 F         138.8938  143.6065  171.3790 F       1  UNL1       -0.1659
     43 F         139.9660  144.6225  169.8565 F       1  UNL1       -0.1659
     44 F         140.0925  141.8832  171.0731 F       1  UNL1       -0.1659
@<TRIPOS>BOND
     1    22    23    1
     2    23    21    1
     3    21    13    1
     4    13    14    2
     5    13    15   am
     6    15    16    1
     7    16    17    1
     8    17    18    1
     9    18    19    1
    10    19     1    1
    11     1     2   ar
    12     2     3   ar
    13     3    24    1
    14    24    25   ar
    15    25    26   ar
    16    26    27   ar
    17    27    31    1
    18    31    32    2
    19    31    33   am
    20    33    35    1
    21    35    36   ar
    22    36    37   ar
    23    37    41    1
    24    41    42    1
    25    41    43    1
    26    41    44    1
    27    37    38   ar
    28    38    39   ar
    29    39    40   ar
    30    27    28   ar
    31    28    29   ar
    32    29    30    1
    33     3     4   ar
    34     4     5   ar
    35     5     6    1
    36     5     7   ar
    37     7     8   ar
    38     8     9   ar
    39     9    10   ar
    40    19    20    1
    41    20    15    1
    42    10     1   ar
    43    29    24   ar
    44    10     4   ar
    45    40    35   ar
    46    33    34    1
    47     6    11    1
    48     6    12    1
