@<TRIPOS>MOLECULE
*****
 27 29 0 0 0
SMALL
GASTEIGER

@<TRIPOS>ATOM
      1 C         141.3328  139.0449  164.3179 C.cat   1  UNL1        0.4181
      2 N         141.5177  140.4432  164.8283 N.2     1  UNL1        0.0599
      3 N         141.8145  138.6776  162.9457 N.pl3   1  UNL1       -0.0877
      4 C         141.0070  138.7351  161.6830 C.3     1  UNL1        0.2016
      5 C         141.8818  138.2812  160.5521 C.3     1  UNL1        0.0787
      6 C         143.2301  137.9433  161.1160 C.2     1  UNL1        0.1101
      7 N         143.1886  138.1882  162.5954 N.2     1  UNL1       -0.1191
      8 C         142.8704  137.8082  159.5280 C.3     1  UNL1        0.0261
      9 C         142.4676  137.7096  158.0864 C.3     1  UNL1        0.0690
     10 N         141.0764  138.0841  157.6691 N.3     1  UNL1       -0.2974
     11 C         140.0879  138.5572  158.6933 C.3     1  UNL1        0.0690
     12 C         140.4906  138.6557  160.1348 C.3     1  UNL1        0.0261
     13 H         140.6699  137.2601  157.2262 H       1  UNL1        0.1232
     14 S         141.0360  140.8107  166.2005 S.O2    1  UNL1        0.1557
     15 O         139.8944  141.5729  165.5955 O.2     1  UNL1       -0.1324
     16 O         142.1774  140.0486  166.8055 O.2     1  UNL1       -0.1324
     17 C         140.5541  141.1782  167.5726 C.ar    1  UNL1        0.1446
     18 C         139.8805  140.1493  168.4316 C.ar    1  UNL1        0.0218
     19 C         139.3987  140.5168  169.8038 C.ar    1  UNL1        0.0023
     20 C         139.5904  141.9133  170.3169 C.ar    1  UNL1        0.0115
     21 C         140.2640  142.9421  169.4579 C.ar    1  UNL1        0.0591
     22 CL        140.4557  144.3385  169.9711 Cl      1  UNL1       -0.0822
     23 C         140.7458  142.5746  168.0859 C.ar    1  UNL1        0.0332
     24 N         140.6660  138.0140  165.1796 N.pl3   1  UNL1       -0.2217
     25 H         141.1867  137.5308  165.8612 H       1  UNL1        0.2454
     26 C         138.1994  138.3327  165.9309 C.3     1  UNL1        0.0436
     27 C         139.2058  137.7195  165.0029 C.3     1  UNL1        0.1638
@<TRIPOS>BOND
     1    26    27    1
     2    27    24    1
     3    24     1    1
     4     1     2    2
     5     2    14    1
     6    14    15    2
     7    14    16    2
     8    14    17    1
     9    17    18   ar
    10    18    19   ar
    11    19    20   ar
    12    20    21   ar
    13    21    22    1
    14    21    23   ar
    15     1     3    1
    16     3     4    1
    17     4     5    1
    18     5     6    1
    19     6     7    2
    20     5     8    1
    21     8     9    1
    22     9    10    1
    23    10    11    1
    24    11    12    1
    25    23    17   ar
    26     7     3    1
    27    12     5    1
    28    24    25    1
    29    10    13    1
@<TRIPOS>MOLECULE
*****
 27 29 0 0 0
SMALL
GASTEIGER

@<TRIPOS>ATOM
      1 C         141.2755  142.5961  165.0577 C.cat   1  UNL1        0.4181
      2 N         142.3310  143.2780  164.2386 N.2     1  UNL1        0.0599
      3 N         141.5795  142.1610  166.4605 N.pl3   1  UNL1       -0.0877
      4 C         140.8246  142.5652  167.6921 C.3     1  UNL1        0.2016
      5 C         141.4703  141.8993  168.8711 C.3     1  UNL1        0.0787
      6 C         142.6243  141.0836  168.3680 C.2     1  UNL1        0.1101
      7 N         142.6918  141.2453  166.8782 N.2     1  UNL1       -0.1191
      8 C         142.2174  141.1701  169.9481 C.3     1  UNL1        0.0261
      9 C         141.7850  141.2975  171.3787 C.3     1  UNL1        0.0690
     10 N         140.6056  142.1543  171.7323 N.3     1  UNL1       -0.2974
     11 C         139.8586  142.8835  170.6553 C.3     1  UNL1        0.0690
     12 C         140.2909  142.7561  169.2247 C.3     1  UNL1        0.0261
     13 H         140.9405  142.8602  172.3881 H       1  UNL1        0.1232
     14 S         142.0271  143.7132  162.8356 S.O2    1  UNL1        0.1557
     15 O         142.0284  145.1459  163.2798 O.2     1  UNL1       -0.1324
     16 O         142.0258  142.2805  162.3914 O.2     1  UNL1       -0.1324
     17 C         141.7232  144.1484  161.4326 C.ar    1  UNL1        0.1446
     18 C         140.6130  145.1234  161.1737 C.ar    1  UNL1        0.0218
     19 C         140.3091  145.5586  159.7707 C.ar    1  UNL1        0.0023
     20 C         141.1154  145.0189  158.6268 C.ar    1  UNL1        0.0115
     21 C         142.2256  144.0439  158.8858 C.ar    1  UNL1        0.0591
     22 CL        143.0318  143.5042  157.7418 Cl      1  UNL1       -0.0822
     23 C         142.5294  143.6087  160.2887 C.ar    1  UNL1        0.0332
     24 N         139.9160  142.3493  164.4738 N.pl3   1  UNL1       -0.2217
     25 H         139.7815  141.6138  163.8334 H       1  UNL1        0.2454
     26 C         138.9473  144.7077  164.9734 C.3     1  UNL1        0.0436
     27 C         138.7616  143.2232  164.8657 C.3     1  UNL1        0.1638
@<TRIPOS>BOND
     1    26    27    1
     2    27    24    1
     3    24     1    1
     4     1     2    2
     5     2    14    1
     6    14    15    2
     7    14    16    2
     8    14    17    1
     9    17    18   ar
    10    18    19   ar
    11    19    20   ar
    12    20    21   ar
    13    21    22    1
    14    21    23   ar
    15     1     3    1
    16     3     4    1
    17     4     5    1
    18     5     6    1
    19     6     7    2
    20     5     8    1
    21     8     9    1
    22     9    10    1
    23    10    11    1
    24    11    12    1
    25    23    17   ar
    26     7     3    1
    27    12     5    1
    28    24    25    1
    29    10    13    1
@<TRIPOS>MOLECULE
*****
 27 29 0 0 0
SMALL
GASTEIGER

@<TRIPOS>ATOM
      1 C         140.8811  143.4988  163.7438 C.cat   1  UNL1        0.4181
      2 N         141.3368  142.0848  163.9508 N.2     1  UNL1        0.0599
      3 N         140.9016  144.0999  162.3697 N.pl3   1  UNL1       -0.0877
      4 C         141.7895  143.6789  161.2364 C.3     1  UNL1        0.2016
      5 C         141.4745  144.5463  160.0538 C.3     1  UNL1        0.0787
      6 C         140.3919  145.5035  160.4563 C.2     1  UNL1        0.1101
      7 N         140.0378  145.2276  161.8876 N.2     1  UNL1       -0.1191
      8 C         141.0530  145.4847  158.9622 C.3     1  UNL1        0.0261
      9 C         141.7059  145.4084  157.6139 C.3     1  UNL1        0.0690
     10 N         142.7804  144.3937  157.3573 N.3     1  UNL1       -0.2974
     11 C         143.2019  143.4553  158.4489 C.3     1  UNL1        0.0690
     12 C         142.5490  143.5316  159.7972 C.3     1  UNL1        0.0261
     13 H         143.6131  144.9114  157.0761 H       1  UNL1        0.1232
     14 S         141.3163  141.4836  165.3249 S.O2    1  UNL1        0.1557
     15 O         142.7067  141.9915  165.5677 O.2     1  UNL1       -0.1324
     16 O         139.9260  140.9758  165.0821 O.2     1  UNL1       -0.1324
     17 C         141.2959  140.8825  166.6990 C.ar    1  UNL1        0.1446
     18 C         142.5347  140.2482  167.2586 C.ar    1  UNL1        0.0218
     19 C         142.5143  139.6470  168.6328 C.ar    1  UNL1        0.0023
     20 C         141.2551  139.6802  169.4472 C.ar    1  UNL1        0.0115
     21 C         140.0164  140.3145  168.8876 C.ar    1  UNL1        0.0591
     22 CL        138.7572  140.3476  169.7021 Cl      1  UNL1       -0.0822
     23 C         140.0368  140.9156  167.5135 C.ar    1  UNL1        0.0332
     24 N         140.4048  144.3118  164.9110 N.pl3   1  UNL1       -0.2217
     25 H         141.0502  144.6413  165.5774 H       1  UNL1        0.2454
     26 C         137.9165  143.6819  164.5091 C.3     1  UNL1        0.0436
     27 C         138.9453  144.6227  165.0628 C.3     1  UNL1        0.1638
@<TRIPOS>BOND
     1    26    27    1
     2    27    24    1
     3    24     1    1
     4     1     2    2
     5     2    14    1
     6    14    15    2
     7    14    16    2
     8    14    17    1
     9    17    18   ar
    10    18    19   ar
    11    19    20   ar
    12    20    21   ar
    13    21    22    1
    14    21    23   ar
    15     1     3    1
    16     3     4    1
    17     4     5    1
    18     5     6    1
    19     6     7    2
    20     5     8    1
    21     8     9    1
    22     9    10    1
    23    10    11    1
    24    11    12    1
    25    23    17   ar
    26     7     3    1
    27    12     5    1
    28    24    25    1
    29    10    13    1
@<TRIPOS>MOLECULE
*****
 27 29 0 0 0
SMALL
GASTEIGER

@<TRIPOS>ATOM
      1 C         142.6542  139.8967  163.7924 C.cat   1  UNL1        0.4181
      2 N         141.5792  140.8344  164.2561 N.2     1  UNL1        0.0599
      3 N         142.6024  139.3223  162.4078 N.pl3   1  UNL1       -0.0877
      4 C         143.1991  139.9357  161.1759 C.3     1  UNL1        0.2016
      5 C         142.9103  139.0261  160.0185 C.3     1  UNL1        0.0787
      6 C         142.1351  137.8505  160.5352 C.2     1  UNL1        0.1101
      7 N         141.9448  138.0335  162.0119 N.2     1  UNL1       -0.1191
      8 C         142.5477  138.0232  158.9637 C.3     1  UNL1        0.0261
      9 C         142.9614  138.2495  157.5398 C.3     1  UNL1        0.0690
     10 N         143.7378  139.4787  157.1707 N.3     1  UNL1       -0.2974
     11 C         144.1005  140.4816  158.2255 C.3     1  UNL1        0.0690
     12 C         143.6867  140.2553  159.6494 C.3     1  UNL1        0.0261
     13 H         143.1879  139.9748  156.4694 H       1  UNL1        0.1232
     14 S         141.6309  141.4089  165.6407 S.O2    1  UNL1        0.1557
     15 O         141.0766  140.1289  166.1924 O.2     1  UNL1       -0.1324
     16 O         142.1853  142.6888  165.0891 O.2     1  UNL1       -0.1324
     17 C         141.6826  141.9833  167.0254 C.ar    1  UNL1        0.1446
     18 C         140.4567  142.6055  167.6255 C.ar    1  UNL1        0.0218
     19 C         140.5084  143.1799  169.0103 C.ar    1  UNL1        0.0023
     20 C         141.7860  143.1320  169.7948 C.ar    1  UNL1        0.0115
     21 C         143.0118  142.5098  169.1947 C.ar    1  UNL1        0.0591
     22 CL        144.2893  142.4620  169.9793 Cl      1  UNL1       -0.0822
     23 C         142.9601  141.9354  167.8101 C.ar    1  UNL1        0.0332
     24 N         143.7810  139.5334  164.7134 N.pl3   1  UNL1       -0.2217
     25 H         143.5923  139.0836  165.5685 H       1  UNL1        0.2454
     26 C         145.5510  141.2369  163.8677 C.3     1  UNL1        0.0436
     27 C         145.1954  139.8555  164.3315 C.3     1  UNL1        0.1638
@<TRIPOS>BOND
     1    26    27    1
     2    27    24    1
     3    24     1    1
     4     1     2    2
     5     2    14    1
     6    14    15    2
     7    14    16    2
     8    14    17    1
     9    17    18   ar
    10    18    19   ar
    11    19    20   ar
    12    20    21   ar
    13    21    22    1
    14    21    23   ar
    15     1     3    1
    16     3     4    1
    17     4     5    1
    18     5     6    1
    19     6     7    2
    20     5     8    1
    21     8     9    1
    22     9    10    1
    23    10    11    1
    24    11    12    1
    25    23    17   ar
    26     7     3    1
    27    12     5    1
    28    24    25    1
    29    10    13    1
@<TRIPOS>MOLECULE
*****
 27 29 0 0 0
SMALL
GASTEIGER

@<TRIPOS>ATOM
      1 C         142.7889  141.2539  164.8266 C.cat   1  UNL1        0.4181
      2 N         142.1593  142.5215  164.3299 N.2     1  UNL1        0.0599
      3 N         142.6897  140.8856  166.2772 N.pl3   1  UNL1       -0.0877
      4 C         142.5325  141.8429  167.4212 C.3     1  UNL1        0.2016
      5 C         142.4759  141.0442  168.6897 C.3     1  UNL1        0.0787
      6 C         142.5980  139.5932  168.3296 C.2     1  UNL1        0.1101
      7 N         142.7301  139.4951  166.8386 N.2     1  UNL1       -0.1191
      8 C         142.4349  140.1176  169.8684 C.3     1  UNL1        0.0261
      9 C         142.2828  140.6725  171.2537 C.3     1  UNL1        0.0690
     10 N         142.1717  142.1540  171.4601 N.3     1  UNL1       -0.2974
     11 C         142.2127  143.0807  170.2814 C.3     1  UNL1        0.0690
     12 C         142.3648  142.5258  168.8961 C.3     1  UNL1        0.0261
     13 H         142.9403  142.4242  172.0739 H       1  UNL1        0.1232
     14 S         142.2585  142.8900  162.8792 S.O2    1  UNL1        0.1557
     15 O         141.2367  141.8442  162.5439 O.2     1  UNL1       -0.1324
     16 O         143.2802  143.9357  163.2145 O.2     1  UNL1       -0.1324
     17 C         142.3576  143.2583  161.4285 C.ar    1  UNL1        0.1446
     18 C         143.4359  142.6596  160.5746 C.ar    1  UNL1        0.0218
     19 C         143.5350  143.0280  159.1239 C.ar    1  UNL1        0.0023
     20 C         142.5558  143.9951  158.5272 C.ar    1  UNL1        0.0115
     21 C         141.4777  144.5937  159.3811 C.ar    1  UNL1        0.0591
     22 CL        140.4986  145.5608  158.7842 Cl      1  UNL1       -0.0822
     23 C         141.3786  144.2254  160.8317 C.ar    1  UNL1        0.0332
     24 N         143.5177  140.3546  163.8726 N.pl3   1  UNL1       -0.2217
     25 H         143.0120  139.7936  163.2411 H       1  UNL1        0.2454
     26 C         145.8057  141.5793  163.7505 C.3     1  UNL1        0.0436
     27 C         145.0170  140.3101  163.8807 C.3     1  UNL1        0.1638
@<TRIPOS>BOND
     1    26    27    1
     2    27    24    1
     3    24     1    1
     4     1     2    2
     5     2    14    1
     6    14    15    2
     7    14    16    2
     8    14    17    1
     9    17    18   ar
    10    18    19   ar
    11    19    20   ar
    12    20    21   ar
    13    21    22    1
    14    21    23   ar
    15     1     3    1
    16     3     4    1
    17     4     5    1
    18     5     6    1
    19     6     7    2
    20     5     8    1
    21     8     9    1
    22     9    10    1
    23    10    11    1
    24    11    12    1
    25    23    17   ar
    26     7     3    1
    27    12     5    1
    28    24    25    1
    29    10    13    1
@<TRIPOS>MOLECULE
*****
 27 29 0 0 0
SMALL
GASTEIGER

@<TRIPOS>ATOM
      1 C         140.7220  140.0541  163.9425 C.cat   1  UNL1        0.4181
      2 N         141.4629  141.3127  164.2843 N.2     1  UNL1        0.0599
      3 N         140.6384  139.5968  162.5164 N.pl3   1  UNL1       -0.0877
      4 C         139.6561  140.0810  161.4914 C.3     1  UNL1        0.2016
      5 C         139.9329  139.3585  160.2063 C.3     1  UNL1        0.0787
      6 C         141.0864  138.4277  160.4371 C.2     1  UNL1        0.1101
      7 N         141.5224  138.5750  161.8648 N.2     1  UNL1       -0.1191
      8 C         140.3257  138.5622  158.9974 C.3     1  UNL1        0.0261
      9 C         139.5800  138.7393  157.7080 C.3     1  UNL1        0.0690
     10 N         138.4416  139.7128  157.6275 N.3     1  UNL1       -0.2974
     11 C         138.0489  140.5091  158.8365 C.3     1  UNL1        0.0690
     12 C         138.7946  140.3319  160.1259 C.3     1  UNL1        0.0261
     13 H         137.6185  139.1806  157.3454 H       1  UNL1        0.1232
     14 S         141.5466  141.7701  165.7104 S.O2    1  UNL1        0.1557
     15 O         142.5616  140.7024  165.9932 O.2     1  UNL1       -0.1324
     16 O         140.5318  142.8378  165.4277 O.2     1  UNL1       -0.1324
     17 C         141.6304  142.2274  167.1366 C.ar    1  UNL1        0.1446
     18 C         140.4206  142.8017  167.8123 C.ar    1  UNL1        0.0218
     19 C         140.5044  143.2590  169.2385 C.ar    1  UNL1        0.0023
     20 C         141.7980  143.1420  169.9888 C.ar    1  UNL1        0.0115
     21 C         143.0077  142.5677  169.3130 C.ar    1  UNL1        0.0591
     22 CL        144.3013  142.4508  170.0634 Cl      1  UNL1       -0.0822
     23 C         142.9240  142.1105  167.8869 C.ar    1  UNL1        0.0332
     24 N         140.0648  139.2527  165.0268 N.pl3   1  UNL1       -0.2217
     25 H         140.5898  138.5988  165.5427 H       1  UNL1        0.2454
     26 C         138.0039  138.8286  166.5509 C.3     1  UNL1        0.0436
     27 C         138.6078  139.4476  165.3253 C.3     1  UNL1        0.1638
@<TRIPOS>BOND
     1    26    27    1
     2    27    24    1
     3    24     1    1
     4     1     2    2
     5     2    14    1
     6    14    15    2
     7    14    16    2
     8    14    17    1
     9    17    18   ar
    10    18    19   ar
    11    19    20   ar
    12    20    21   ar
    13    21    22    1
    14    21    23   ar
    15     1     3    1
    16     3     4    1
    17     4     5    1
    18     5     6    1
    19     6     7    2
    20     5     8    1
    21     8     9    1
    22     9    10    1
    23    10    11    1
    24    11    12    1
    25    23    17   ar
    26     7     3    1
    27    12     5    1
    28    24    25    1
    29    10    13    1
@<TRIPOS>MOLECULE
*****
 27 29 0 0 0
SMALL
GASTEIGER

@<TRIPOS>ATOM
      1 C         143.0970  141.2261  164.8351 C.cat   1  UNL1        0.4181
      2 N         143.5917  140.2017  163.8575 N.2     1  UNL1        0.0599
      3 N         142.9068  140.8570  166.2764 N.pl3   1  UNL1       -0.0877
      4 C         142.7502  141.8162  167.4190 C.3     1  UNL1        0.2016
      5 C         142.5865  141.0158  168.6771 C.3     1  UNL1        0.0787
      6 C         142.6419  139.5619  168.3120 C.2     1  UNL1        0.1101
      7 N         142.8398  139.4637  166.8283 N.2     1  UNL1       -0.1191
      8 C         142.4353  140.0873  169.8453 C.3     1  UNL1        0.0261
      9 C         142.2489  140.6432  171.2260 C.3     1  UNL1        0.0690
     10 N         142.2137  142.1276  171.4383 N.3     1  UNL1       -0.2974
     11 C         142.3648  143.0562  170.2701 C.3     1  UNL1        0.0690
     12 C         142.5512  142.5003  168.8894 C.3     1  UNL1        0.0261
     13 H         142.9660  142.3497  172.0903 H       1  UNL1        0.1232
     14 S         143.7819  140.5707  162.4161 S.O2    1  UNL1        0.1557
     15 O         145.2253  140.8778  162.6853 O.2     1  UNL1       -0.1324
     16 O         142.3387  140.2637  162.1469 O.2     1  UNL1       -0.1324
     17 C         143.9722  140.9398  160.9747 C.ar    1  UNL1        0.1446
     18 C         144.5409  142.2798  160.6124 C.ar    1  UNL1        0.0218
     19 C         144.7312  142.6489  159.1710 C.ar    1  UNL1        0.0023
     20 C         144.3528  141.6780  158.0920 C.ar    1  UNL1        0.0115
     21 C         143.7842  140.3381  158.4544 C.ar    1  UNL1        0.0591
     22 CL        143.4059  139.3672  157.3753 Cl      1  UNL1       -0.0822
     23 C         143.5939  139.9690  159.8957 C.ar    1  UNL1        0.0332
     24 N         142.7923  142.6197  164.3714 N.pl3   1  UNL1       -0.2217
     25 H         141.8939  142.8413  164.0355 H       1  UNL1        0.2454
     26 C         143.7775  144.8624  163.5054 C.3     1  UNL1        0.0436
     27 C         143.8567  143.6756  164.4193 C.3     1  UNL1        0.1638
@<TRIPOS>BOND
     1    26    27    1
     2    27    24    1
     3    24     1    1
     4     1     2    2
     5     2    14    1
     6    14    15    2
     7    14    16    2
     8    14    17    1
     9    17    18   ar
    10    18    19   ar
    11    19    20   ar
    12    20    21   ar
    13    21    22    1
    14    21    23   ar
    15     1     3    1
    16     3     4    1
    17     4     5    1
    18     5     6    1
    19     6     7    2
    20     5     8    1
    21     8     9    1
    22     9    10    1
    23    10    11    1
    24    11    12    1
    25    23    17   ar
    26     7     3    1
    27    12     5    1
    28    24    25    1
    29    10    13    1
@<TRIPOS>MOLECULE
*****
 27 29 0 0 0
SMALL
GASTEIGER

@<TRIPOS>ATOM
      1 C         139.0954  140.2897  164.3954 C.cat   1  UNL1        0.4181
      2 N         140.4780  140.7294  164.7761 N.2     1  UNL1        0.0599
      3 N         138.6949  140.2414  162.9508 N.pl3   1  UNL1       -0.0877
      4 C         138.9784  141.2951  161.9215 C.3     1  UNL1        0.2016
      5 C         138.3992  140.8360  160.6162 C.3     1  UNL1        0.0787
      6 C         137.7577  139.4984  160.8387 C.2     1  UNL1        0.1101
      7 N         137.9404  139.1310  162.2816 N.2     1  UNL1       -0.1191
      8 C         137.7724  140.2479  159.3869 C.3     1  UNL1        0.0261
      9 C         137.8255  140.9950  158.0874 C.3     1  UNL1        0.0690
     10 N         138.5053  142.3303  158.0171 N.3     1  UNL1       -0.2974
     11 C         139.1322  142.9184  159.2464 C.3     1  UNL1        0.0690
     12 C         139.0791  142.1712  160.5459 C.3     1  UNL1        0.0261
     13 H         137.8069  142.9996  157.6937 H       1  UNL1        0.1232
     14 S         140.8787  140.7777  166.2208 S.O2    1  UNL1        0.1557
     15 O         141.6626  139.5109  166.0456 O.2     1  UNL1       -0.1324
     16 O         140.0948  142.0445  166.3960 O.2     1  UNL1       -0.1324
     17 C         141.2794  140.8259  167.6655 C.ar    1  UNL1        0.1446
     18 C         140.4582  140.1088  168.6959 C.ar    1  UNL1        0.0218
     19 C         140.8589  140.1570  170.1406 C.ar    1  UNL1        0.0023
     20 C         142.0807  140.9223  170.5548 C.ar    1  UNL1        0.0115
     21 C         142.9018  141.6394  169.5245 C.ar    1  UNL1        0.0591
     22 CL        144.1235  142.4047  169.9388 Cl      1  UNL1       -0.0822
     23 C         142.5011  141.5912  168.0799 C.ar    1  UNL1        0.0332
     24 N         138.1133  139.8982  165.4594 N.pl3   1  UNL1       -0.2217
     25 H         137.4513  140.5513  165.7827 H       1  UNL1        0.2454
     26 C         137.3930  138.2073  167.2958 C.3     1  UNL1        0.0436
     27 C         138.1398  138.5116  166.0310 C.3     1  UNL1        0.1638
@<TRIPOS>BOND
     1    26    27    1
     2    27    24    1
     3    24     1    1
     4     1     2    2
     5     2    14    1
     6    14    15    2
     7    14    16    2
     8    14    17    1
     9    17    18   ar
    10    18    19   ar
    11    19    20   ar
    12    20    21   ar
    13    21    22    1
    14    21    23   ar
    15     1     3    1
    16     3     4    1
    17     4     5    1
    18     5     6    1
    19     6     7    2
    20     5     8    1
    21     8     9    1
    22     9    10    1
    23    10    11    1
    24    11    12    1
    25    23    17   ar
    26     7     3    1
    27    12     5    1
    28    24    25    1
    29    10    13    1
@<TRIPOS>MOLECULE
*****
 27 29 0 0 0
SMALL
GASTEIGER

@<TRIPOS>ATOM
      1 C         139.0184  142.0694  163.2313 C.cat   1  UNL1        0.4181
      2 N         140.0692  141.3488  164.0229 N.2     1  UNL1        0.0599
      3 N         139.0460  142.0241  161.7323 N.pl3   1  UNL1       -0.0877
      4 C         139.8961  141.1169  160.8931 C.3     1  UNL1        0.2016
      5 C         139.6038  141.4102  159.4513 C.3     1  UNL1        0.0787
      6 C         138.5730  142.4987  159.3995 C.2     1  UNL1        0.1101
      7 N         138.2282  142.8781  160.8092 N.2     1  UNL1       -0.1191
      8 C         139.2097  141.8116  158.0608 C.3     1  UNL1        0.0261
      9 C         139.8379  141.1352  156.8786 C.3     1  UNL1        0.0690
     10 N         140.8602  140.0574  157.0868 N.3     1  UNL1       -0.2974
     11 C         141.2543  139.6560  158.4773 C.3     1  UNL1        0.0690
     12 C         140.6261  140.3324  159.6596 C.3     1  UNL1        0.0261
     13 H         141.7117  140.3643  156.6165 H       1  UNL1        0.1232
     14 S         140.0417  141.3940  165.5219 S.O2    1  UNL1        0.1557
     15 O         141.2123  142.3320  165.5150 O.2     1  UNL1       -0.1324
     16 O         138.8712  140.4561  165.5289 O.2     1  UNL1       -0.1324
     17 C         140.0143  141.4393  167.0210 C.ar    1  UNL1        0.1446
     18 C         139.5936  140.2285  167.8004 C.ar    1  UNL1        0.0218
     19 C         139.5662  140.2738  169.2994 C.ar    1  UNL1        0.0023
     20 C         139.9595  141.5298  170.0191 C.ar    1  UNL1        0.0115
     21 C         140.3801  142.7404  169.2397 C.ar    1  UNL1        0.0591
     22 CL        140.7734  143.9963  169.9595 Cl      1  UNL1       -0.0822
     23 C         140.4076  142.6952  167.7408 C.ar    1  UNL1        0.0332
     24 N         137.9400  142.8352  163.9388 N.pl3   1  UNL1       -0.2217
     25 H         137.1525  142.3628  164.2935 H       1  UNL1        0.2454
     26 C         138.6008  144.8902  165.3846 C.3     1  UNL1        0.0436
     27 C         138.0616  144.3210  164.1059 C.3     1  UNL1        0.1638
@<TRIPOS>BOND
     1    26    27    1
     2    27    24    1
     3    24     1    1
     4     1     2    2
     5     2    14    1
     6    14    15    2
     7    14    16    2
     8    14    17    1
     9    17    18   ar
    10    18    19   ar
    11    19    20   ar
    12    20    21   ar
    13    21    22    1
    14    21    23   ar
    15     1     3    1
    16     3     4    1
    17     4     5    1
    18     5     6    1
    19     6     7    2
    20     5     8    1
    21     8     9    1
    22     9    10    1
    23    10    11    1
    24    11    12    1
    25    23    17   ar
    26     7     3    1
    27    12     5    1
    28    24    25    1
    29    10    13    1
