@<TRIPOS>MOLECULE
*****
 40 46 0 0 0
SMALL
GASTEIGER

@<TRIPOS>ATOM
      1 C         140.7627  141.1958  159.8732 C.3     1  UNL1        0.1558
      2 N         141.0943  140.1211  158.8807 N.3     1  UNL1       -0.2809
      3 C         142.4060  139.3987  158.9678 C.3     1  UNL1        0.1166
      4 C         143.3860  139.7509  160.0474 C.3     1  UNL1        0.0511
      5 C         143.0543  140.8255  161.0399 C.2     1  UNL1       -0.0037
      6 C         141.7427  141.5479  160.9528 C.2     1  UNL1        0.0784
      7 N         141.6933  142.5546  162.0638 N.2     1  UNL1       -0.2519
      8 C         142.9745  142.4544  162.8374 C.2     1  UNL1        0.0627
      9 C         143.4838  143.1981  164.0363 C.3     1  UNL1        0.0717
     10 C         144.8343  142.8732  164.6024 C.2     1  UNL1       -0.0198
     11 C         145.6755  141.8045  163.9697 C.2     1  UNL1       -0.0042
     12 C         145.1662  141.0608  162.7708 C.2     1  UNL1        0.0006
     13 C         143.8157  141.3857  162.2047 C.2     1  UNL1        0.0111
     14 H         141.0561  140.5517  157.9568 H       1  UNL1        0.1245
     15 C         139.5173  141.2197  159.0375 C.ar    1  UNL1        0.0423
     16 C         138.4120  140.2062  159.0731 C.ar    1  UNL1        0.1194
     17 N         137.3701  140.6215  158.0771 N.ar    1  UNL1       -0.1679
     18 N         137.8315  141.8916  157.4259 N.ar    1  UNL1       -0.2476
     19 C         137.0951  142.6575  156.3671 C.3     1  UNL1        0.1537
     20 C         139.1585  142.2613  158.0195 C.ar    1  UNL1        0.0944
     21 C         142.7378  138.3240  157.9752 C.ar    1  UNL1        0.1319
     22 N         142.3477  136.8792  158.0768 N.ar    1  UNL1       -0.2282
     23 C         142.8866  136.1678  156.8712 C.ar    1  UNL1        0.1171
     24 C         143.6097  137.1729  156.0246 C.ar    1  UNL1        0.0942
     25 N         143.5177  138.5056  156.7069 N.ar    1  UNL1       -0.3385
     26 H         143.9018  139.3509  156.3797 H       1  UNL1        0.1672
     27 C         142.7300  134.7075  156.5659 C.ar    1  UNL1        0.1006
     28 C         141.7642  134.2619  155.5082 C.ar    1  UNL1        0.0230
     29 C         141.6075  132.8017  155.2029 C.ar    1  UNL1        0.0328
     30 C         142.4165  131.7871  155.9553 C.ar    1  UNL1        0.1592
     31 F         142.2598  130.3269  155.6500 F       1  UNL1       -0.2025
     32 C         143.3823  132.2328  157.0130 C.ar    1  UNL1        0.1284
     33 N         143.5390  133.6930  157.3183 N.ar    1  UNL1       -0.2399
     34 C         138.5129  143.4334  162.1086 C.ar    1  UNL1        0.2364
     35 N         139.0483  142.0871  161.7202 N.ar    1  UNL1       -0.1928
     36 C         139.9985  142.2787  160.5756 C.ar    1  UNL1        0.2023
     37 N         140.0505  143.7434  160.2565 N.ar    1  UNL1       -0.0586
     38 O         139.1323  144.4571  161.2040 O.2     1  UNL1       -0.3373
     39 C         138.0211  144.0260  164.5899 C.3     1  UNL1        0.0103
     40 C         137.5306  143.7078  163.2085 C.3     1  UNL1        0.0880
@<TRIPOS>BOND
     1    39    40    1
     2    40    34    1
     3    34    35   ar
     4    35    36   ar
     5     1    36    1
     6     1    15    1
     7    15    16   ar
     8    16    17   ar
     9    17    18   ar
    10    18    19    1
    11    18    20   ar
    12     1     2    1
    13     2     3    1
    14     3    21    1
    15    21    22   ar
    16    22    23   ar
    17    23    27    1
    18    27    28   ar
    19    28    29   ar
    20    29    30   ar
    21    30    31    1
    22    30    32   ar
    23    32    33   ar
    24    23    24   ar
    25    24    25   ar
    26     3     4    1
    27     4     5    1
    28     5     6    2
    29     6     7    1
    30     7     8    2
    31     8     9    1
    32     9    10    1
    33    10    11    2
    34    11    12    1
    35    12    13    2
    36    36    37   ar
    37    37    38   ar
    38    38    34   ar
    39     6     1    1
    40    13     8    1
    41    20    15   ar
    42    25    21   ar
    43    13     5    1
    44    33    27   ar
    45     2    14    1
    46    25    26    1
@<TRIPOS>MOLECULE
*****
 40 46 0 0 0
SMALL
GASTEIGER

@<TRIPOS>ATOM
      1 C         141.3585  141.1443  160.2310 C.3     1  UNL1        0.1558
      2 N         140.7752  141.9639  159.1183 N.3     1  UNL1       -0.2809
      3 C         140.8730  143.4602  159.1582 C.3     1  UNL1        0.1166
      4 C         141.5540  144.1369  160.3107 C.3     1  UNL1        0.0511
      5 C         142.1373  143.3173  161.4233 C.2     1  UNL1       -0.0037
      6 C         142.0396  141.8210  161.3835 C.2     1  UNL1        0.0784
      7 N         142.7036  141.2803  162.6150 N.2     1  UNL1       -0.2519
      8 C         143.2118  142.4423  163.4159 C.2     1  UNL1        0.0627
      9 C         143.9479  142.5166  164.7207 C.3     1  UNL1        0.0717
     10 C         144.3341  143.8500  165.2890 C.2     1  UNL1       -0.0198
     11 C         143.9841  145.1090  164.5525 C.2     1  UNL1       -0.0042
     12 C         143.2479  145.0346  163.2477 C.2     1  UNL1        0.0006
     13 C         142.8618  143.7013  162.6794 C.2     1  UNL1        0.0111
     14 H         139.7823  141.7348  159.0731 H       1  UNL1        0.1245
     15 C         140.8145  140.0511  159.3598 C.ar    1  UNL1        0.0423
     16 C         139.3951  139.5664  159.3364 C.ar    1  UNL1        0.1194
     17 N         139.2978  138.4664  158.3212 N.ar    1  UNL1       -0.1679
     18 N         140.6568  138.2713  157.7173 N.ar    1  UNL1       -0.2476
     19 C         141.0156  137.2722  156.6576 C.3     1  UNL1        0.1537
     20 C         141.5943  139.2507  158.3592 C.ar    1  UNL1        0.0944
     21 C         140.2896  144.2798  158.0454 C.ar    1  UNL1        0.1319
     22 N         140.2201  145.7774  157.9966 N.ar    1  UNL1       -0.2282
     23 C         139.5610  146.1689  156.7073 C.ar    1  UNL1        0.1171
     24 C         139.2231  144.9133  155.9594 C.ar    1  UNL1        0.0942
     25 N         139.6735  143.7458  156.7864 N.ar    1  UNL1       -0.3385
     26 H         139.5809  142.7958  156.5453 H       1  UNL1        0.1672
     27 C         139.2876  147.5701  156.2467 C.ar    1  UNL1        0.1006
     28 C         139.7209  148.0080  154.8790 C.ar    1  UNL1        0.0230
     29 C         139.4476  149.4091  154.4185 C.ar    1  UNL1        0.0328
     30 C         138.7410  150.3723  155.3256 C.ar    1  UNL1        0.1592
     31 F         138.4677  151.7735  154.8651 F       1  UNL1       -0.2025
     32 C         138.3078  149.9344  156.6933 C.ar    1  UNL1        0.1284
     33 N         138.5811  148.5333  157.1538 N.ar    1  UNL1       -0.2399
     34 C         141.6882  138.1040  162.6212 C.ar    1  UNL1        0.2364
     35 N         140.8978  139.2472  162.0567 N.ar    1  UNL1       -0.1928
     36 C         141.7529  139.9451  161.0411 C.ar    1  UNL1        0.2023
     37 N         143.0718  139.2334  160.9778 N.ar    1  UNL1       -0.0586
     38 O         143.0317  138.0955  161.9544 O.2     1  UNL1       -0.3373
     39 C         140.1088  137.5265  164.6016 C.3     1  UNL1        0.0103
     40 C         141.2175  137.1389  163.6685 C.3     1  UNL1        0.0880
@<TRIPOS>BOND
     1    39    40    1
     2    40    34    1
     3    34    35   ar
     4    35    36   ar
     5     1    36    1
     6     1    15    1
     7    15    16   ar
     8    16    17   ar
     9    17    18   ar
    10    18    19    1
    11    18    20   ar
    12     1     2    1
    13     2     3    1
    14     3    21    1
    15    21    22   ar
    16    22    23   ar
    17    23    27    1
    18    27    28   ar
    19    28    29   ar
    20    29    30   ar
    21    30    31    1
    22    30    32   ar
    23    32    33   ar
    24    23    24   ar
    25    24    25   ar
    26     3     4    1
    27     4     5    1
    28     5     6    2
    29     6     7    1
    30     7     8    2
    31     8     9    1
    32     9    10    1
    33    10    11    2
    34    11    12    1
    35    12    13    2
    36    36    37   ar
    37    37    38   ar
    38    38    34   ar
    39     6     1    1
    40    13     8    1
    41    20    15   ar
    42    25    21   ar
    43    13     5    1
    44    33    27   ar
    45     2    14    1
    46    25    26    1
@<TRIPOS>MOLECULE
*****
 40 46 0 0 0
SMALL
GASTEIGER

@<TRIPOS>ATOM
      1 C         140.0725  141.6391  160.9084 C.3     1  UNL1        0.1558
      2 N         140.7703  140.9864  159.7521 N.3     1  UNL1       -0.2809
      3 C         141.0491  139.5128  159.7792 C.3     1  UNL1        0.1166
      4 C         140.6301  138.6919  160.9626 C.3     1  UNL1        0.0511
      5 C         139.9322  139.3445  162.1189 C.2     1  UNL1       -0.0037
      6 C         139.6534  140.8181  162.0918 C.2     1  UNL1        0.0784
      7 N         138.9540  141.1811  163.3682 N.2     1  UNL1       -0.2519
      8 C         138.8005  139.9318  164.1841 C.2     1  UNL1        0.0627
      9 C         138.1884  139.6811  165.5304 C.3     1  UNL1        0.0717
     10 C         138.1808  138.2954  166.1045 C.2     1  UNL1       -0.0198
     11 C         138.7854  137.1604  165.3324 C.2     1  UNL1       -0.0042
     12 C         139.3976  137.4110  163.9862 C.2     1  UNL1        0.0006
     13 C         139.4051  138.7967  163.4120 C.2     1  UNL1        0.0111
     14 H         141.6707  141.4546  159.6492 H       1  UNL1        0.1245
     15 C         140.2734  142.8304  160.0194 C.ar    1  UNL1        0.0423
     16 C         141.1905  143.9865  160.2883 C.ar    1  UNL1        0.1194
     17 N         141.0763  144.9454  159.1404 N.ar    1  UNL1       -0.1679
     18 N         140.0887  144.3819  158.1621 N.ar    1  UNL1       -0.2476
     19 C         139.6707  145.0144  156.8679 C.3     1  UNL1        0.1537
     20 C         139.5924  143.0748  158.7054 C.ar    1  UNL1        0.0944
     21 C         141.7470  138.8601  158.6229 C.ar    1  UNL1        0.1319
     22 N         141.7261  137.3971  158.2925 N.ar    1  UNL1       -0.2282
     23 C         142.5544  137.1886  157.0594 C.ar    1  UNL1        0.1171
     24 C         143.0871  138.5227  156.6277 C.ar    1  UNL1        0.0942
     25 N         142.5881  139.5558  157.5940 N.ar    1  UNL1       -0.3385
     26 H         142.7790  140.5210  157.5591 H       1  UNL1        0.1672
     27 C         142.8059  135.8763  156.3776 C.ar    1  UNL1        0.1006
     28 C         142.4192  135.6917  154.9402 C.ar    1  UNL1        0.0230
     29 C         142.6706  134.3795  154.2584 C.ar    1  UNL1        0.0328
     30 C         143.3087  133.2519  155.0142 C.ar    1  UNL1        0.1592
     31 F         143.5601  131.9396  154.3324 F       1  UNL1       -0.2025
     32 C         143.6954  133.4365  156.4516 C.ar    1  UNL1        0.1284
     33 N         143.4440  134.7487  157.1334 N.ar    1  UNL1       -0.2399
     34 C         139.0805  144.3467  163.5066 C.ar    1  UNL1        0.2364
     35 N         140.0504  143.3326  162.9764 N.ar    1  UNL1       -0.1928
     36 C         139.4444  142.7055  161.7560 C.ar    1  UNL1        0.2023
     37 N         138.1000  143.3318  161.5319 N.ar    1  UNL1       -0.0586
     38 O         137.8751  144.3462  162.6139 O.2     1  UNL1       -0.3373
     39 C         138.3149  145.1317  165.8619 C.3     1  UNL1        0.0103
     40 C         139.2809  145.2096  164.7170 C.3     1  UNL1        0.0880
@<TRIPOS>BOND
     1    39    40    1
     2    40    34    1
     3    34    35   ar
     4    35    36   ar
     5     1    36    1
     6     1    15    1
     7    15    16   ar
     8    16    17   ar
     9    17    18   ar
    10    18    19    1
    11    18    20   ar
    12     1     2    1
    13     2     3    1
    14     3    21    1
    15    21    22   ar
    16    22    23   ar
    17    23    27    1
    18    27    28   ar
    19    28    29   ar
    20    29    30   ar
    21    30    31    1
    22    30    32   ar
    23    32    33   ar
    24    23    24   ar
    25    24    25   ar
    26     3     4    1
    27     4     5    1
    28     5     6    2
    29     6     7    1
    30     7     8    2
    31     8     9    1
    32     9    10    1
    33    10    11    2
    34    11    12    1
    35    12    13    2
    36    36    37   ar
    37    37    38   ar
    38    38    34   ar
    39     6     1    1
    40    13     8    1
    41    20    15   ar
    42    25    21   ar
    43    13     5    1
    44    33    27   ar
    45     2    14    1
    46    25    26    1
@<TRIPOS>MOLECULE
*****
 40 46 0 0 0
SMALL
GASTEIGER

@<TRIPOS>ATOM
      1 C         139.7180  141.6072  160.0146 C.3     1  UNL1        0.1558
      2 N         139.8171  140.7832  158.7652 N.3     1  UNL1       -0.2809
      3 C         139.6893  139.2905  158.8392 C.3     1  UNL1        0.1166
      4 C         139.4623  138.6218  160.1626 C.3     1  UNL1        0.0511
      5 C         139.3631  139.4459  161.4120 C.2     1  UNL1       -0.0037
      6 C         139.4910  140.9386  161.3380 C.2     1  UNL1        0.0784
      7 N         139.3514  141.4852  162.7279 N.2     1  UNL1       -0.2519
      8 C         139.1373  140.3303  163.6609 C.2     1  UNL1        0.0627
      9 C         138.9367  140.2636  165.1459 C.3     1  UNL1        0.0717
     10 C         138.7433  138.9364  165.8176 C.2     1  UNL1       -0.0198
     11 C         138.7506  137.6761  165.0043 C.2     1  UNL1       -0.0042
     12 C         138.9512  137.7428  163.5193 C.2     1  UNL1        0.0006
     13 C         139.1446  139.0700  162.8476 C.2     1  UNL1        0.0111
     14 H         140.7294  140.9806  158.3539 H       1  UNL1        0.1245
     15 C         139.9369  142.6930  159.0032 C.ar    1  UNL1        0.0423
     16 C         138.9472  143.1514  157.9734 C.ar    1  UNL1        0.1194
     17 N         139.5827  144.2528  157.1777 N.ar    1  UNL1       -0.1679
     18 N         140.9651  144.4751  157.7156 N.ar    1  UNL1       -0.2476
     19 C         141.9548  145.4842  157.2136 C.3     1  UNL1        0.1537
     20 C         141.1841  143.5112  158.8438 C.ar    1  UNL1        0.0944
     21 C         139.7884  138.4663  157.5897 C.ar    1  UNL1        0.1319
     22 N         140.7140  137.3067  157.3697 N.ar    1  UNL1       -0.2282
     23 C         140.4771  136.7808  155.9850 C.ar    1  UNL1        0.1171
     24 C         139.4051  137.6155  155.3493 C.ar    1  UNL1        0.0942
     25 N         138.9795  138.6572  156.3411 N.ar    1  UNL1       -0.3385
     26 H         138.2903  139.3454  156.1977 H       1  UNL1        0.1672
     27 C         141.1874  135.6234  155.3479 C.ar    1  UNL1        0.1006
     28 C         140.9171  135.2747  153.9142 C.ar    1  UNL1        0.0230
     29 C         141.6274  134.1173  153.2771 C.ar    1  UNL1        0.0328
     30 C         142.6081  133.3087  154.0736 C.ar    1  UNL1        0.1592
     31 F         143.3184  132.1513  153.4365 F       1  UNL1       -0.2025
     32 C         142.8784  133.6574  155.5073 C.ar    1  UNL1        0.1284
     33 N         142.1681  134.8148  156.1444 N.ar    1  UNL1       -0.2399
     34 C         140.3884  144.5614  162.4413 C.ar    1  UNL1        0.2364
     35 N         140.8613  143.3601  161.6775 N.ar    1  UNL1       -0.1928
     36 C         139.6948  142.8084  160.9128 C.ar    1  UNL1        0.2023
     37 N         138.5010  143.6686  161.2039 N.ar    1  UNL1       -0.0586
     38 O         138.9297  144.7521  162.1486 O.2     1  UNL1       -0.3373
     39 C         142.6682  145.0775  163.5754 C.3     1  UNL1        0.0103
     40 C         141.2271  145.4210  163.3399 C.3     1  UNL1        0.0880
@<TRIPOS>BOND
     1    39    40    1
     2    40    34    1
     3    34    35   ar
     4    35    36   ar
     5     1    36    1
     6     1    15    1
     7    15    16   ar
     8    16    17   ar
     9    17    18   ar
    10    18    19    1
    11    18    20   ar
    12     1     2    1
    13     2     3    1
    14     3    21    1
    15    21    22   ar
    16    22    23   ar
    17    23    27    1
    18    27    28   ar
    19    28    29   ar
    20    29    30   ar
    21    30    31    1
    22    30    32   ar
    23    32    33   ar
    24    23    24   ar
    25    24    25   ar
    26     3     4    1
    27     4     5    1
    28     5     6    2
    29     6     7    1
    30     7     8    2
    31     8     9    1
    32     9    10    1
    33    10    11    2
    34    11    12    1
    35    12    13    2
    36    36    37   ar
    37    37    38   ar
    38    38    34   ar
    39     6     1    1
    40    13     8    1
    41    20    15   ar
    42    25    21   ar
    43    13     5    1
    44    33    27   ar
    45     2    14    1
    46    25    26    1
@<TRIPOS>MOLECULE
*****
 40 46 0 0 0
SMALL
GASTEIGER

@<TRIPOS>ATOM
      1 C         141.6690  142.0180  161.5889 C.3     1  UNL1        0.1558
      2 N         141.8869  141.2807  160.3010 N.3     1  UNL1       -0.2809
      3 C         142.4301  139.8827  160.3198 C.3     1  UNL1        0.1166
      4 C         142.7553  139.2219  161.6266 C.3     1  UNL1        0.0511
      5 C         142.5374  139.9592  162.9145 C.2     1  UNL1       -0.0037
      6 C         141.9942  141.3573  162.8957 C.2     1  UNL1        0.0784
      7 N         141.8853  141.8313  164.3147 N.2     1  UNL1       -0.2519
      8 C         142.3611  140.7262  165.2104 C.2     1  UNL1        0.0627
      9 C         142.4795  140.6240  166.7022 C.3     1  UNL1        0.0717
     10 C         143.0009  139.3648  167.3287 C.2     1  UNL1       -0.0198
     11 C         143.4039  138.2078  166.4633 C.2     1  UNL1       -0.0042
     12 C         143.2855  138.3100  164.9715 C.2     1  UNL1        0.0006
     13 C         142.7641  139.5692  164.3451 C.2     1  UNL1        0.0111
     14 H         142.5348  141.8409  159.7470 H       1  UNL1        0.1245
     15 C         141.2131  143.0606  160.6117 C.ar    1  UNL1        0.0423
     16 C         139.7896  143.4321  160.3188 C.ar    1  UNL1        0.1194
     17 N         139.7974  144.5159  159.2817 N.ar    1  UNL1       -0.1679
     18 N         141.2256  144.8142  158.9336 N.ar    1  UNL1       -0.2476
     19 C         141.6963  145.8329  157.9384 C.3     1  UNL1        0.1537
     20 C         142.1006  143.9147  159.7556 C.ar    1  UNL1        0.0944
     21 C         142.6481  139.1453  159.0318 C.ar    1  UNL1        0.1319
     22 N         142.6643  137.6552  158.8609 N.ar    1  UNL1       -0.2282
     23 C         142.9143  137.3575  157.4121 C.ar    1  UNL1        0.1171
     24 C         143.0526  138.6637  156.6877 C.ar    1  UNL1        0.0942
     25 N         142.8881  139.7686  157.6887 N.ar    1  UNL1       -0.3385
     26 H         142.9302  140.7335  157.4978 H       1  UNL1        0.1672
     27 C         143.0093  135.9932  156.7959 C.ar    1  UNL1        0.1006
     28 C         142.7754  135.8167  155.3249 C.ar    1  UNL1        0.0230
     29 C         142.8704  134.4524  154.7087 C.ar    1  UNL1        0.0328
     30 C         143.1994  133.2646  155.5636 C.ar    1  UNL1        0.1592
     31 F         143.2944  131.9003  154.9474 F       1  UNL1       -0.2025
     32 C         143.4333  133.4411  157.0347 C.ar    1  UNL1        0.1284
     33 N         143.3383  134.8054  157.6509 N.ar    1  UNL1       -0.2399
     34 C         140.0743  144.4518  164.1579 C.ar    1  UNL1        0.2364
     35 N         140.0369  143.1853  163.3550 N.ar    1  UNL1       -0.1928
     36 C         141.2927  143.1174  162.5376 C.ar    1  UNL1        0.2023
     37 N         142.1063  144.3419  162.8352 N.ar    1  UNL1       -0.0586
     38 O         141.3533  145.1666  163.8366 O.2     1  UNL1       -0.3373
     39 C         137.6048  144.4414  164.9648 C.3     1  UNL1        0.0103
     40 C         139.0182  144.9210  165.1141 C.3     1  UNL1        0.0880
@<TRIPOS>BOND
     1    39    40    1
     2    40    34    1
     3    34    35   ar
     4    35    36   ar
     5     1    36    1
     6     1    15    1
     7    15    16   ar
     8    16    17   ar
     9    17    18   ar
    10    18    19    1
    11    18    20   ar
    12     1     2    1
    13     2     3    1
    14     3    21    1
    15    21    22   ar
    16    22    23   ar
    17    23    27    1
    18    27    28   ar
    19    28    29   ar
    20    29    30   ar
    21    30    31    1
    22    30    32   ar
    23    32    33   ar
    24    23    24   ar
    25    24    25   ar
    26     3     4    1
    27     4     5    1
    28     5     6    2
    29     6     7    1
    30     7     8    2
    31     8     9    1
    32     9    10    1
    33    10    11    2
    34    11    12    1
    35    12    13    2
    36    36    37   ar
    37    37    38   ar
    38    38    34   ar
    39     6     1    1
    40    13     8    1
    41    20    15   ar
    42    25    21   ar
    43    13     5    1
    44    33    27   ar
    45     2    14    1
    46    25    26    1
@<TRIPOS>MOLECULE
*****
 40 46 0 0 0
SMALL
GASTEIGER

@<TRIPOS>ATOM
      1 C         141.7849  142.0376  160.0914 C.3     1  UNL1        0.1558
      2 N         141.0118  141.5696  158.8943 N.3     1  UNL1       -0.2809
      3 C         139.5153  141.6706  158.8815 C.3     1  UNL1        0.1166
      4 C         138.7919  142.2397  160.0660 C.3     1  UNL1        0.0511
      5 C         139.5650  142.7077  161.2631 C.2     1  UNL1       -0.0037
      6 C         141.0615  142.6067  161.2759 C.2     1  UNL1        0.0784
      7 N         141.5513  143.1449  162.5875 N.2     1  UNL1       -0.2519
      8 C         140.3574  143.5785  163.3855 C.2     1  UNL1        0.0627
      9 C         140.2296  144.1846  164.7516 C.3     1  UNL1        0.0717
     10 C         138.8741  144.5204  165.2992 C.2     1  UNL1       -0.0198
     11 C         137.6465  144.2502  164.4807 C.2     1  UNL1       -0.0042
     12 C         137.7744  143.6441  163.1145 C.2     1  UNL1        0.0006
     13 C         139.1298  143.3083  162.5669 C.2     1  UNL1        0.0111
     14 H         141.2416  140.5846  158.7620 H       1  UNL1        0.1245
     15 C         142.9129  141.5754  159.2174 C.ar    1  UNL1        0.0423
     16 C         143.3001  140.1496  158.9580 C.ar    1  UNL1        0.1194
     17 N         144.4783  140.1509  158.0295 N.ar    1  UNL1       -0.1679
     18 N         144.8192  141.5773  157.7151 N.ar    1  UNL1       -0.2476
     19 C         145.9321  142.0419  156.8232 C.3     1  UNL1        0.1537
     20 C         143.8518  142.4578  158.4492 C.ar    1  UNL1        0.0944
     21 C         138.7421  141.2026  157.6843 C.ar    1  UNL1        0.1319
     22 N         137.4408  141.7690  157.1987 N.ar    1  UNL1       -0.2282
     23 C         137.0289  141.0025  155.9769 C.ar    1  UNL1        0.1171
     24 C         138.0756  139.9624  155.7074 C.ar    1  UNL1        0.0942
     25 N         139.1345  140.0861  156.7627 N.ar    1  UNL1       -0.3385
     26 H         139.9446  139.5318  156.8373 H       1  UNL1        0.1672
     27 C         135.7881  141.2353  155.1667 C.ar    1  UNL1        0.1006
     28 C         134.4399  140.9604  155.7641 C.ar    1  UNL1        0.0230
     29 C         133.1991  141.1931  154.9540 C.ar    1  UNL1        0.0328
     30 C         133.3065  141.7007  153.5466 C.ar    1  UNL1        0.1592
     31 F         132.0657  141.9335  152.7365 F       1  UNL1       -0.2025
     32 C         134.6547  141.9756  152.9493 C.ar    1  UNL1        0.1284
     33 N         135.8955  141.7428  153.7594 N.ar    1  UNL1       -0.2399
     34 C         144.7480  142.1071  162.5976 C.ar    1  UNL1        0.2364
     35 N         143.6437  141.3749  161.8944 N.ar    1  UNL1       -0.1928
     36 C         142.9498  142.3451  160.9851 C.ar    1  UNL1        0.2023
     37 N         143.6252  143.6770  161.1262 N.ar    1  UNL1       -0.0586
     38 O         144.7366  143.5298  162.1228 O.2     1  UNL1       -0.3373
     39 C         145.3834  140.2036  164.2478 C.3     1  UNL1        0.0103
     40 C         145.6970  141.5196  163.5996 C.3     1  UNL1        0.0880
@<TRIPOS>BOND
     1    39    40    1
     2    40    34    1
     3    34    35   ar
     4    35    36   ar
     5     1    36    1
     6     1    15    1
     7    15    16   ar
     8    16    17   ar
     9    17    18   ar
    10    18    19    1
    11    18    20   ar
    12     1     2    1
    13     2     3    1
    14     3    21    1
    15    21    22   ar
    16    22    23   ar
    17    23    27    1
    18    27    28   ar
    19    28    29   ar
    20    29    30   ar
    21    30    31    1
    22    30    32   ar
    23    32    33   ar
    24    23    24   ar
    25    24    25   ar
    26     3     4    1
    27     4     5    1
    28     5     6    2
    29     6     7    1
    30     7     8    2
    31     8     9    1
    32     9    10    1
    33    10    11    2
    34    11    12    1
    35    12    13    2
    36    36    37   ar
    37    37    38   ar
    38    38    34   ar
    39     6     1    1
    40    13     8    1
    41    20    15   ar
    42    25    21   ar
    43    13     5    1
    44    33    27   ar
    45     2    14    1
    46    25    26    1
@<TRIPOS>MOLECULE
*****
 40 46 0 0 0
SMALL
GASTEIGER

@<TRIPOS>ATOM
      1 C         142.4695  142.6271  160.1608 C.3     1  UNL1        0.1558
      2 N         141.9606  143.2551  158.8972 N.3     1  UNL1       -0.2809
      3 C         140.7932  144.1958  158.9446 C.3     1  UNL1        0.1166
      4 C         140.1347  144.5086  160.2555 C.3     1  UNL1        0.0511
      5 C         140.6436  143.8807  161.5191 C.2     1  UNL1       -0.0037
      6 C         141.8110  142.9400  161.4718 C.2     1  UNL1        0.0784
      7 N         142.0896  142.4762  162.8708 N.2     1  UNL1       -0.2519
      8 C         141.0944  143.1304  163.7828 C.2     1  UNL1        0.0627
      9 C         140.8865  143.0477  165.2660 C.3     1  UNL1        0.0717
     10 C         139.7849  143.8331  165.9138 C.2     1  UNL1       -0.0198
     11 C         138.8912  144.7011  165.0784 C.2     1  UNL1       -0.0042
     12 C         139.0992  144.7838  163.5952 C.2     1  UNL1        0.0006
     13 C         140.2007  143.9984  162.9474 C.2     1  UNL1        0.0111
     14 H         141.6983  142.4915  158.2739 H       1  UNL1        0.1245
     15 C         143.4193  142.0234  159.1692 C.ar    1  UNL1        0.0423
     16 C         143.4489  140.5869  158.7385 C.ar    1  UNL1        0.1194
     17 N         144.5542  140.4260  157.7372 N.ar    1  UNL1       -0.1679
     18 N         145.2076  141.7630  157.5491 N.ar    1  UNL1       -0.2476
     19 C         146.3600  142.0605  156.6363 C.3     1  UNL1        0.1537
     20 C         144.5062  142.7503  158.4341 C.ar    1  UNL1        0.0944
     21 C         140.2843  144.8238  157.6809 C.ar    1  UNL1        0.1319
     22 N         140.3769  146.2765  157.3190 N.ar    1  UNL1       -0.2282
     23 C         139.7433  146.4598  155.9718 C.ar    1  UNL1        0.1171
     24 C         139.2591  145.1204  155.5012 C.ar    1  UNL1        0.0942
     25 N         139.5934  144.1093  156.5575 N.ar    1  UNL1       -0.3385
     26 H         139.3944  143.1459  156.5200 H       1  UNL1        0.1672
     27 C         139.6162  147.7552  155.2262 C.ar    1  UNL1        0.1006
     28 C         140.1693  147.8785  153.8373 C.ar    1  UNL1        0.0230
     29 C         140.0422  149.1738  153.0917 C.ar    1  UNL1        0.0328
     30 C         139.3622  150.3458  153.7349 C.ar    1  UNL1        0.1592
     31 F         139.2351  151.6412  152.9893 F       1  UNL1       -0.2025
     32 C         138.8091  150.2226  155.1238 C.ar    1  UNL1        0.1284
     33 N         138.9362  148.9273  155.8694 N.ar    1  UNL1       -0.2399
     34 C         144.0385  140.0062  162.5555 C.ar    1  UNL1        0.2364
     35 N         142.8943  140.4971  161.7188 N.ar    1  UNL1       -0.1928
     36 C         143.3082  141.7895  161.0801 C.ar    1  UNL1        0.2023
     37 N         144.7082  142.0976  161.5220 N.ar    1  UNL1       -0.0586
     38 O         145.1595  140.9953  162.4338 O.2     1  UNL1       -0.3373
     39 C         143.1767  138.6217  164.5780 C.3     1  UNL1        0.0103
     40 C         144.0580  138.7472  163.3707 C.3     1  UNL1        0.0880
@<TRIPOS>BOND
     1    39    40    1
     2    40    34    1
     3    34    35   ar
     4    35    36   ar
     5     1    36    1
     6     1    15    1
     7    15    16   ar
     8    16    17   ar
     9    17    18   ar
    10    18    19    1
    11    18    20   ar
    12     1     2    1
    13     2     3    1
    14     3    21    1
    15    21    22   ar
    16    22    23   ar
    17    23    27    1
    18    27    28   ar
    19    28    29   ar
    20    29    30   ar
    21    30    31    1
    22    30    32   ar
    23    32    33   ar
    24    23    24   ar
    25    24    25   ar
    26     3     4    1
    27     4     5    1
    28     5     6    2
    29     6     7    1
    30     7     8    2
    31     8     9    1
    32     9    10    1
    33    10    11    2
    34    11    12    1
    35    12    13    2
    36    36    37   ar
    37    37    38   ar
    38    38    34   ar
    39     6     1    1
    40    13     8    1
    41    20    15   ar
    42    25    21   ar
    43    13     5    1
    44    33    27   ar
    45     2    14    1
    46    25    26    1
@<TRIPOS>MOLECULE
*****
 40 46 0 0 0
SMALL
GASTEIGER

@<TRIPOS>ATOM
      1 C         141.8806  143.7331  159.3988 C.3     1  UNL1        0.1558
      2 N         142.6062  143.3983  158.1294 N.3     1  UNL1       -0.2809
      3 C         143.9610  142.7571  158.1868 C.3     1  UNL1        0.1166
      4 C         144.5902  142.4506  159.5136 C.3     1  UNL1        0.0511
      5 C         143.8645  142.7854  160.7830 C.2     1  UNL1       -0.0037
      6 C         142.5097  143.4266  160.7256 C.2     1  UNL1        0.0784
      7 N         142.0381  143.6403  162.1334 N.2     1  UNL1       -0.2519
      8 C         143.1014  143.1311  163.0608 C.2     1  UNL1        0.0627
      9 C         143.1876  143.0804  164.5574 C.3     1  UNL1        0.0717
     10 C         144.4026  142.5012  165.2195 C.2     1  UNL1       -0.0198
     11 C         145.5314  141.9729  164.3848 C.2     1  UNL1       -0.0042
     12 C         145.4452  142.0237  162.8882 C.2     1  UNL1        0.0006
     13 C         144.2302  142.6028  162.2262 C.2     1  UNL1        0.0111
     14 H         142.7153  144.2715  157.6136 H       1  UNL1        0.1245
     15 C         140.8785  144.2138  158.3915 C.ar    1  UNL1        0.0423
     16 C         139.7258  143.4228  157.8478 C.ar    1  UNL1        0.1194
     17 N         138.9881  144.2901  156.8712 N.ar    1  UNL1       -0.1679
     18 N         139.6850  145.6171  156.8113 N.ar    1  UNL1       -0.2476
     19 C         139.2839  146.7859  155.9611 C.3     1  UNL1        0.1537
     20 C         140.8533  145.5699  157.7508 C.ar    1  UNL1        0.0944
     21 C         144.6868  142.4223  156.9174 C.ar    1  UNL1        0.1319
     22 N         146.1747  142.3351  156.7493 N.ar    1  UNL1       -0.2282
     23 C         146.4595  141.9749  155.3213 C.ar    1  UNL1        0.1171
     24 C         145.1476  141.8394  154.6069 C.ar    1  UNL1        0.0942
     25 N         144.0519  142.1160  155.5934 N.ar    1  UNL1       -0.3385
     26 H         143.0858  142.0993  155.4049 H       1  UNL1        0.1672
     27 C         147.8179  141.7837  154.7143 C.ar    1  UNL1        0.1006
     28 C         149.0378  141.7952  155.5871 C.ar    1  UNL1        0.0230
     29 C         150.3960  141.6040  154.9802 C.ar    1  UNL1        0.0328
     30 C         150.5345  141.4013  153.5004 C.ar    1  UNL1        0.1592
     31 F         151.8928  141.2101  152.8934 F       1  UNL1       -0.2025
     32 C         149.3146  141.3898  152.6276 C.ar    1  UNL1        0.1284
     33 N         147.9563  141.5810  153.2346 N.ar    1  UNL1       -0.2399
     34 C         138.9321  144.3018  161.8582 C.ar    1  UNL1        0.2364
     35 N         139.8156  143.3887  161.0608 N.ar    1  UNL1       -0.1928
     36 C         140.8069  144.2348  160.3184 C.ar    1  UNL1        0.2023
     37 N         140.5362  145.6708  160.6569 N.ar    1  UNL1       -0.0586
     38 O         139.3775  145.7121  161.6086 O.2     1  UNL1       -0.3373
     39 C         138.0184  143.7542  164.2279 C.3     1  UNL1        0.0103
     40 C         137.8018  143.8786  162.7488 C.3     1  UNL1        0.0880
@<TRIPOS>BOND
     1    39    40    1
     2    40    34    1
     3    34    35   ar
     4    35    36   ar
     5     1    36    1
     6     1    15    1
     7    15    16   ar
     8    16    17   ar
     9    17    18   ar
    10    18    19    1
    11    18    20   ar
    12     1     2    1
    13     2     3    1
    14     3    21    1
    15    21    22   ar
    16    22    23   ar
    17    23    27    1
    18    27    28   ar
    19    28    29   ar
    20    29    30   ar
    21    30    31    1
    22    30    32   ar
    23    32    33   ar
    24    23    24   ar
    25    24    25   ar
    26     3     4    1
    27     4     5    1
    28     5     6    2
    29     6     7    1
    30     7     8    2
    31     8     9    1
    32     9    10    1
    33    10    11    2
    34    11    12    1
    35    12    13    2
    36    36    37   ar
    37    37    38   ar
    38    38    34   ar
    39     6     1    1
    40    13     8    1
    41    20    15   ar
    42    25    21   ar
    43    13     5    1
    44    33    27   ar
    45     2    14    1
    46    25    26    1
@<TRIPOS>MOLECULE
*****
 40 46 0 0 0
SMALL
GASTEIGER

@<TRIPOS>ATOM
      1 C         141.0277  142.4250  159.2780 C.3     1  UNL1        0.1558
      2 N         139.7554  142.0136  158.5983 N.3     1  UNL1       -0.2809
      3 C         139.7885  141.5121  157.1850 C.3     1  UNL1        0.1166
      4 C         141.0938  141.4220  156.4514 C.3     1  UNL1        0.0511
      5 C         142.3660  141.8334  157.1311 C.2     1  UNL1       -0.0037
      6 C         142.3330  142.3349  158.5444 C.2     1  UNL1        0.0784
      7 N         143.7381  142.6663  158.9515 N.2     1  UNL1       -0.2519
      8 C         144.6396  142.3697  157.7899 C.2     1  UNL1        0.0627
      9 C         146.1230  142.5017  157.6113 C.3     1  UNL1        0.0717
     10 C         146.7584  142.1191  156.3075 C.2     1  UNL1       -0.0198
     11 C         145.9104  141.6043  155.1824 C.2     1  UNL1       -0.0042
     12 C         144.4270  141.4722  155.3611 C.2     1  UNL1        0.0006
     13 C         143.7916  141.8549  156.6648 C.2     1  UNL1        0.0111
     14 H         139.1402  142.8271  158.6078 H       1  UNL1        0.1245
     15 C         140.0459  142.6900  160.3806 C.ar    1  UNL1        0.0423
     16 C         139.6349  144.0397  160.8897 C.ar    1  UNL1        0.1194
     17 N         138.6377  143.8355  161.9916 N.ar    1  UNL1       -0.1679
     18 N         138.4324  142.3596  162.1634 N.ar    1  UNL1       -0.2476
     19 C         137.5174  141.7064  163.1563 C.3     1  UNL1        0.1537
     20 C         139.3027  141.6516  161.1677 C.ar    1  UNL1        0.0944
     21 C         138.5161  141.1007  156.5052 C.ar    1  UNL1        0.1319
     22 N         137.1420  141.1451  157.1049 N.ar    1  UNL1       -0.2282
     23 C         136.1712  140.6445  156.0768 C.ar    1  UNL1        0.1171
     24 C         136.9454  140.2907  154.8417 C.ar    1  UNL1        0.0942
     25 N         138.3947  140.5726  155.1065 N.ar    1  UNL1       -0.3385
     26 H         139.1360  140.4352  154.4734 H       1  UNL1        0.1672
     27 C         134.6868  140.5197  156.2528 C.ar    1  UNL1        0.1006
     28 C         133.7583  141.2851  155.3572 C.ar    1  UNL1        0.0230
     29 C         132.2739  141.1602  155.5332 C.ar    1  UNL1        0.0328
     30 C         131.7180  140.2700  156.6049 C.ar    1  UNL1        0.1592
     31 F         130.2336  140.1452  156.7809 F       1  UNL1       -0.2025
     32 C         132.6465  139.5046  157.5005 C.ar    1  UNL1        0.1284
     33 N         134.1309  139.6294  157.3245 N.ar    1  UNL1       -0.2399
     34 C         143.4328  143.0134  162.2671 C.ar    1  UNL1        0.2364
     35 N         142.5720  142.1081  161.4366 N.ar    1  UNL1       -0.1928
     36 C         141.9591  142.9285  160.3407 C.ar    1  UNL1        0.2023
     37 N         142.4409  144.3407  160.4937 N.ar    1  UNL1       -0.0586
     38 O         143.3517  144.3931  161.6844 O.2     1  UNL1       -0.3373
     39 C         145.5286  141.8725  163.2947 C.3     1  UNL1        0.0103
     40 C         144.2339  142.6096  163.4693 C.3     1  UNL1        0.0880
@<TRIPOS>BOND
     1    39    40    1
     2    40    34    1
     3    34    35   ar
     4    35    36   ar
     5     1    36    1
     6     1    15    1
     7    15    16   ar
     8    16    17   ar
     9    17    18   ar
    10    18    19    1
    11    18    20   ar
    12     1     2    1
    13     2     3    1
    14     3    21    1
    15    21    22   ar
    16    22    23   ar
    17    23    27    1
    18    27    28   ar
    19    28    29   ar
    20    29    30   ar
    21    30    31    1
    22    30    32   ar
    23    32    33   ar
    24    23    24   ar
    25    24    25   ar
    26     3     4    1
    27     4     5    1
    28     5     6    2
    29     6     7    1
    30     7     8    2
    31     8     9    1
    32     9    10    1
    33    10    11    2
    34    11    12    1
    35    12    13    2
    36    36    37   ar
    37    37    38   ar
    38    38    34   ar
    39     6     1    1
    40    13     8    1
    41    20    15   ar
    42    25    21   ar
    43    13     5    1
    44    33    27   ar
    45     2    14    1
    46    25    26    1
