@<TRIPOS>MOLECULE
*****
 39 45 0 0 0
SMALL
GASTEIGER

@<TRIPOS>ATOM
      1 C         138.4308  141.8145  164.4291 C.3     1  UNL1        0.0955
      2 C         138.8275  143.0837  165.1234 C.3     1  UNL1        0.0287
      3 C         138.7817  144.3885  164.3849 C.3     1  UNL1        0.0193
      4 C         138.3391  144.4241  162.9521 C.3     1  UNL1        0.0700
      5 C         137.9425  143.1550  162.2579 C.3     1  UNL1        0.0193
      6 C         137.9883  141.8502  162.9963 C.3     1  UNL1        0.0287
      7 C         138.3479  143.6852  163.3154 C.3     1  UNL1        0.1562
      8 O         138.3894  142.5054  163.9832 O.3     1  UNL1       -0.3571
      9 N         138.2933  145.7289  162.2135 N.3     1  UNL1       -0.2925
     10 H         137.9285  146.4236  162.8653 H       1  UNL1        0.1236
     11 C         139.5486  146.3030  161.6266 C.3     1  UNL1        0.1161
     12 C         140.4477  145.4414  160.7902 C.ar    1  UNL1        0.0886
     13 N         140.1530  145.2429  159.3330 N.ar    1  UNL1       -0.2425
     14 C         141.0520  144.3814  158.4965 C.ar    1  UNL1        0.1385
     15 C         142.2457  143.7185  159.1173 C.ar    1  UNL1        0.1923
     16 C         142.5404  143.9170  160.5746 C.ar    1  UNL1        0.1856
     17 C         141.6414  144.7785  161.4111 C.ar    1  UNL1        0.1094
     18 CL        141.9362  144.9770  162.8684 Cl      1  UNL1       -0.0777
     19 O         143.7341  143.2541  161.1956 O.3     1  UNL1       -0.4674
     20 C         144.6331  142.3926  160.3591 C.3     1  UNL1        0.2527
     21 C         144.3385  142.1940  158.9019 C.3     1  UNL1        0.2527
     22 O         143.1447  142.8570  158.2809 O.3     1  UNL1       -0.4668
     23 C         138.4767  140.5097  165.1677 C.3     1  UNL1        0.0604
     24 O         138.8515  140.7628  170.2743 O.2     1  UNL1       -0.2670
     25 C         140.0806  140.1983  169.6257 C.ar    1  UNL1        0.2611
     26 C         141.2483  139.7791  170.4687 C.ar    1  UNL1        0.0623
     27 C         142.4774  139.2146  169.8201 C.ar    1  UNL1        0.0254
     28 C         142.5388  139.0694  168.3285 C.ar    1  UNL1        0.0972
     29 N         143.6219  138.5452  167.4215 N.ar    1  UNL1       -0.2400
     30 C         143.5383  138.4602  165.9262 C.ar    1  UNL1        0.1282
     31 C         142.2992  138.9200  165.2170 C.ar    1  UNL1        0.1588
     32 F         142.2156  138.8350  163.7218 F       1  UNL1       -0.2027
     33 C         141.1435  139.4648  166.0030 C.ar    1  UNL1        0.0500
     34 C         141.3712  139.4887  167.4854 C.ar    1  UNL1        0.0806
     35 N         140.1421  140.0531  168.1341 N.ar    1  UNL1       -0.2915
     36 C         139.1548  140.3781  167.0525 C.3     1  UNL1        0.1402
     37 C         139.7738  140.0144  165.7354 C.3     1  UNL1        0.1335
     38 O         140.1216  139.7543  164.2996 O.3     1  UNL1       -0.3806
     39 H         139.3791  140.0186  163.7341 H       1  UNL1        0.2108
@<TRIPOS>BOND
     1    24    25    2
     2    25    26   ar
     3    26    27   ar
     4    27    28   ar
     5    28    29   ar
     6    29    30   ar
     7    30    31   ar
     8    31    32    1
     9    31    33   ar
    10    33    34   ar
    11    34    35   ar
    12    35    36    1
    13    36    37    1
    14    37    38    1
    15    37    23    1
    16    23     1    1
    17     1     2    1
    18     2     3    1
    19     3     4    1
    20     4     9    1
    21     9    11    1
    22    11    12    1
    23    12    13   ar
    24    13    14   ar
    25    14    15   ar
    26    15    16   ar
    27    16    17   ar
    28    17    18    1
    29    16    19    1
    30    19    20    1
    31    20    21    1
    32    21    22    1
    33     4     5    1
    34     5     6    1
    35     4     7    1
    36     7     8    1
    37    35    25   ar
    38     6     1    1
    39    34    28   ar
    40     8     1    1
    41    37    33    1
    42    17    12   ar
    43    22    15    1
    44    38    39    1
    45     9    10    1
@<TRIPOS>MOLECULE
*****
 39 45 0 0 0
SMALL
GASTEIGER

@<TRIPOS>ATOM
      1 C         138.5136  139.3422  164.6626 C.3     1  UNL1        0.0955
      2 C         137.8313  140.6777  164.6304 C.3     1  UNL1        0.0287
      3 C         137.5043  141.3214  163.3155 C.3     1  UNL1        0.0193
      4 C         137.8596  140.6296  162.0329 C.3     1  UNL1        0.0700
      5 C         138.5418  139.2941  162.0651 C.3     1  UNL1        0.0193
      6 C         138.8689  138.6504  163.3800 C.3     1  UNL1        0.0287
      7 C         138.0589  140.2375  162.7291 C.3     1  UNL1        0.1562
      8 O         138.3546  139.6555  163.9179 O.3     1  UNL1       -0.3571
      9 N         137.5326  141.2732  160.7181 N.3     1  UNL1       -0.2925
     10 H         136.6602  141.7851  160.8497 H       1  UNL1        0.1236
     11 C         138.5036  142.2271  160.0880 C.3     1  UNL1        0.1161
     12 C         139.4143  143.0494  160.9510 C.ar    1  UNL1        0.0886
     13 N         138.8905  144.2744  161.6401 N.ar    1  UNL1       -0.2425
     14 C         139.8011  145.0967  162.5030 C.ar    1  UNL1        0.1385
     15 C         141.2355  144.6939  162.6768 C.ar    1  UNL1        0.1923
     16 C         141.7593  143.4689  161.9877 C.ar    1  UNL1        0.1856
     17 C         140.8487  142.6466  161.1248 C.ar    1  UNL1        0.1094
     18 CL        141.3726  141.4216  160.4356 Cl      1  UNL1       -0.0777
     19 O         143.1937  143.0661  162.1614 O.3     1  UNL1       -0.4674
     20 C         144.1043  143.8884  163.0244 C.3     1  UNL1        0.2527
     21 C         143.5806  145.1134  163.7135 C.3     1  UNL1        0.2527
     22 O         142.1461  145.5162  163.5398 O.3     1  UNL1       -0.4668
     23 C         138.8406  138.6986  165.9774 C.3     1  UNL1        0.0604
     24 O         143.2714  141.0678  164.9592 O.2     1  UNL1       -0.2670
     25 C         142.7687  141.3401  166.3460 C.ar    1  UNL1        0.2611
     26 C         143.5522  142.2276  167.2670 C.ar    1  UNL1        0.0623
     27 C         143.0495  142.4999  168.6537 C.ar    1  UNL1        0.0254
     28 C         141.7633  141.8846  169.1195 C.ar    1  UNL1        0.0972
     29 N         141.0305  141.9799  170.4327 N.ar    1  UNL1       -0.2400
     30 C         139.7344  141.2979  170.7566 C.ar    1  UNL1        0.1282
     31 C         139.0631  140.4359  169.7288 C.ar    1  UNL1        0.1588
     32 F         137.7670  139.7539  170.0528 F       1  UNL1       -0.2027
     33 C         139.6880  140.2558  168.3771 C.ar    1  UNL1        0.0500
     34 C         140.9798  140.9970  168.1985 C.ar    1  UNL1        0.0806
     35 N         141.4825  140.7247  166.8118 N.ar    1  UNL1       -0.2915
     36 C         140.5013  139.8154  166.1333 C.3     1  UNL1        0.1402
     37 C         139.3922  139.5256  167.1007 C.3     1  UNL1        0.1335
     38 O         138.1678  139.0629  167.8333 O.3     1  UNL1       -0.3806
     39 H         137.6442  138.4858  167.2557 H       1  UNL1        0.2108
@<TRIPOS>BOND
     1    24    25    2
     2    25    26   ar
     3    26    27   ar
     4    27    28   ar
     5    28    29   ar
     6    29    30   ar
     7    30    31   ar
     8    31    32    1
     9    31    33   ar
    10    33    34   ar
    11    34    35   ar
    12    35    36    1
    13    36    37    1
    14    37    38    1
    15    37    23    1
    16    23     1    1
    17     1     2    1
    18     2     3    1
    19     3     4    1
    20     4     9    1
    21     9    11    1
    22    11    12    1
    23    12    13   ar
    24    13    14   ar
    25    14    15   ar
    26    15    16   ar
    27    16    17   ar
    28    17    18    1
    29    16    19    1
    30    19    20    1
    31    20    21    1
    32    21    22    1
    33     4     5    1
    34     5     6    1
    35     4     7    1
    36     7     8    1
    37    35    25   ar
    38     6     1    1
    39    34    28   ar
    40     8     1    1
    41    37    33    1
    42    17    12   ar
    43    22    15    1
    44    38    39    1
    45     9    10    1
@<TRIPOS>MOLECULE
*****
 39 45 0 0 0
SMALL
GASTEIGER

@<TRIPOS>ATOM
      1 C         143.1742  143.0452  164.3220 C.3     1  UNL1        0.0955
      2 C         142.1903  144.1773  164.3468 C.3     1  UNL1        0.0287
      3 C         141.8146  144.8725  163.0718 C.3     1  UNL1        0.0193
      4 C         142.4227  144.4356  161.7720 C.3     1  UNL1        0.0700
      5 C         143.4065  143.3036  161.7473 C.3     1  UNL1        0.0193
      6 C         143.7823  142.6083  163.0222 C.3     1  UNL1        0.0287
      7 C         142.6595  144.0242  162.4449 C.3     1  UNL1        0.1562
      8 O         142.9992  143.3956  163.5977 O.3     1  UNL1       -0.3571
      9 N         142.0470  145.1308  160.4971 N.3     1  UNL1       -0.2925
     10 H         142.8607  145.0815  159.8840 H       1  UNL1        0.1236
     11 C         140.8728  144.6486  159.6979 C.3     1  UNL1        0.1161
     12 C         140.0268  143.5221  160.2129 C.ar    1  UNL1        0.0886
     13 N         138.8258  143.8140  161.0628 N.ar    1  UNL1       -0.2425
     14 C         137.9797  142.6876  161.5779 C.ar    1  UNL1        0.1385
     15 C         138.3347  141.2692  161.2430 C.ar    1  UNL1        0.1923
     16 C         139.5357  140.9772  160.3931 C.ar    1  UNL1        0.1856
     17 C         140.3817  142.1037  159.8781 C.ar    1  UNL1        0.1094
     18 CL        141.5828  141.8118  159.0282 Cl      1  UNL1       -0.0777
     19 O         139.8907  139.5589  160.0583 O.3     1  UNL1       -0.4674
     20 C         139.0446  138.4324  160.5733 C.3     1  UNL1        0.2527
     21 C         137.8437  138.7243  161.4232 C.3     1  UNL1        0.2527
     22 O         137.4886  140.1427  161.7581 O.3     1  UNL1       -0.4668
     23 C         143.5499  142.3500  165.5970 C.3     1  UNL1        0.0604
     24 O         143.8268  143.4611  170.5941 O.2     1  UNL1       -0.2670
     25 C         142.6805  142.5530  170.2603 C.ar    1  UNL1        0.2611
     26 C         141.7639  142.0722  171.3458 C.ar    1  UNL1        0.0623
     27 C         140.6176  141.1641  171.0120 C.ar    1  UNL1        0.0254
     28 C         140.3880  140.7369  169.5927 C.ar    1  UNL1        0.0972
     29 N         139.3383  139.8489  168.9761 N.ar    1  UNL1       -0.2400
     30 C         139.2344  139.5079  167.5191 C.ar    1  UNL1        0.1282
     31 C         140.2291  140.0667  166.5453 C.ar    1  UNL1        0.1588
     32 F         140.1252  139.7256  165.0883 F       1  UNL1       -0.2027
     33 C         141.3276  140.9665  167.0284 C.ar    1  UNL1        0.0500
     34 C         141.3046  141.2177  168.5071 C.ar    1  UNL1        0.0806
     35 N         142.4509  142.1258  168.8409 N.ar    1  UNL1       -0.2915
     36 C         143.1823  142.4358  167.5685 C.3     1  UNL1        0.1402
     37 C         142.4881  141.7194  166.4484 C.3     1  UNL1        0.1335
     38 O         142.0159  141.1347  165.1502 O.3     1  UNL1       -0.3806
     39 H         142.5952  141.4328  164.4316 H       1  UNL1        0.2108
@<TRIPOS>BOND
     1    24    25    2
     2    25    26   ar
     3    26    27   ar
     4    27    28   ar
     5    28    29   ar
     6    29    30   ar
     7    30    31   ar
     8    31    32    1
     9    31    33   ar
    10    33    34   ar
    11    34    35   ar
    12    35    36    1
    13    36    37    1
    14    37    38    1
    15    37    23    1
    16    23     1    1
    17     1     2    1
    18     2     3    1
    19     3     4    1
    20     4     9    1
    21     9    11    1
    22    11    12    1
    23    12    13   ar
    24    13    14   ar
    25    14    15   ar
    26    15    16   ar
    27    16    17   ar
    28    17    18    1
    29    16    19    1
    30    19    20    1
    31    20    21    1
    32    21    22    1
    33     4     5    1
    34     5     6    1
    35     4     7    1
    36     7     8    1
    37    35    25   ar
    38     6     1    1
    39    34    28   ar
    40     8     1    1
    41    37    33    1
    42    17    12   ar
    43    22    15    1
    44    38    39    1
    45     9    10    1
@<TRIPOS>MOLECULE
*****
 39 45 0 0 0
SMALL
GASTEIGER

@<TRIPOS>ATOM
      1 C         143.2144  142.8905  164.5823 C.3     1  UNL1        0.0955
      2 C         142.2472  144.0302  164.7082 C.3     1  UNL1        0.0287
      3 C         141.8345  144.8017  163.4898 C.3     1  UNL1        0.0193
      4 C         142.3889  144.4336  162.1456 C.3     1  UNL1        0.0700
      5 C         143.3561  143.2940  162.0197 C.3     1  UNL1        0.0193
      6 C         143.7688  142.5224  163.2380 C.3     1  UNL1        0.0287
      7 C         142.6446  143.9815  162.7846 C.3     1  UNL1        0.1562
      8 O         143.0178  143.2840  163.8862 O.3     1  UNL1       -0.3571
      9 N         141.9762  145.2051  160.9272 N.3     1  UNL1       -0.2925
     10 H         142.7279  145.1029  160.2453 H       1  UNL1        0.1236
     11 C         140.6994  144.8615  160.2189 C.3     1  UNL1        0.1161
     12 C         139.8831  143.6873  160.6716 C.ar    1  UNL1        0.0886
     13 N         138.7209  143.8941  161.5971 N.ar    1  UNL1       -0.2425
     14 C         137.9045  142.7200  162.0499 C.ar    1  UNL1        0.1385
     15 C         138.2504  141.3391  161.5772 C.ar    1  UNL1        0.1923
     16 C         139.4126  141.1323  160.6517 C.ar    1  UNL1        0.1856
     17 C         140.2289  142.3064  160.1989 C.ar    1  UNL1        0.1094
     18 CL        141.3911  142.0996  159.2735 Cl      1  UNL1       -0.0777
     19 O         139.7585  139.7514  160.1790 O.3     1  UNL1       -0.4674
     20 C         138.9421  138.5773  160.6318 C.3     1  UNL1        0.2527
     21 C         137.7799  138.7840  161.5572 C.3     1  UNL1        0.2527
     22 O         137.4340  140.1650  162.0300 O.3     1  UNL1       -0.4668
     23 C         143.6271  142.1190  165.8007 C.3     1  UNL1        0.0604
     24 O         139.7570  139.0132  164.5129 O.2     1  UNL1       -0.2670
     25 C         139.6758  139.4896  165.9329 C.ar    1  UNL1        0.2611
     26 C         138.5409  139.0479  166.8085 C.ar    1  UNL1        0.0623
     27 C         138.4597  139.5244  168.2285 C.ar    1  UNL1        0.0254
     28 C         139.5135  140.4426  168.7729 C.ar    1  UNL1        0.0972
     29 N         139.6851  141.0680  170.1329 N.ar    1  UNL1       -0.2400
     30 C         140.8066  141.9791  170.5358 C.ar    1  UNL1        0.1282
     31 C         141.8766  142.3342  169.5464 C.ar    1  UNL1        0.1588
     32 F         142.9980  143.2453  169.9493 F       1  UNL1       -0.2027
     33 C         141.8252  141.7783  168.1542 C.ar    1  UNL1        0.0500
     34 C         140.6484  140.8843  167.8972 C.ar    1  UNL1        0.0806
     35 N         140.7296  140.4078  166.4773 N.ar    1  UNL1       -0.2915
     36 C         141.9565  141.0073  165.8566 C.3     1  UNL1        0.1402
     37 C         142.6337  141.8543  166.8930 C.3     1  UNL1        0.1335
     38 O         143.5185  142.7566  167.7010 O.3     1  UNL1       -0.3806
     39 H         144.2615  143.0556  167.1538 H       1  UNL1        0.2108
@<TRIPOS>BOND
     1    24    25    2
     2    25    26   ar
     3    26    27   ar
     4    27    28   ar
     5    28    29   ar
     6    29    30   ar
     7    30    31   ar
     8    31    32    1
     9    31    33   ar
    10    33    34   ar
    11    34    35   ar
    12    35    36    1
    13    36    37    1
    14    37    38    1
    15    37    23    1
    16    23     1    1
    17     1     2    1
    18     2     3    1
    19     3     4    1
    20     4     9    1
    21     9    11    1
    22    11    12    1
    23    12    13   ar
    24    13    14   ar
    25    14    15   ar
    26    15    16   ar
    27    16    17   ar
    28    17    18    1
    29    16    19    1
    30    19    20    1
    31    20    21    1
    32    21    22    1
    33     4     5    1
    34     5     6    1
    35     4     7    1
    36     7     8    1
    37    35    25   ar
    38     6     1    1
    39    34    28   ar
    40     8     1    1
    41    37    33    1
    42    17    12   ar
    43    22    15    1
    44    38    39    1
    45     9    10    1
@<TRIPOS>MOLECULE
*****
 39 45 0 0 0
SMALL
GASTEIGER

@<TRIPOS>ATOM
      1 C         137.9986  140.1800  162.5864 C.3     1  UNL1        0.0955
      2 C         137.7029  141.4903  161.9186 C.3     1  UNL1        0.0287
      3 C         137.5666  142.7373  162.7410 C.3     1  UNL1        0.0193
      4 C         137.7259  142.6741  164.2312 C.3     1  UNL1        0.0700
      5 C         138.0215  141.3638  164.8989 C.3     1  UNL1        0.0193
      6 C         138.1579  140.1168  164.0766 C.3     1  UNL1        0.0287
      7 C         137.8094  141.9641  163.8225 C.3     1  UNL1        0.1562
      8 O         137.9327  140.8366  163.0789 O.3     1  UNL1       -0.3571
      9 N         137.5896  143.9211  165.0537 N.3     1  UNL1       -0.2925
     10 H         137.3195  143.6268  165.9922 H       1  UNL1        0.1236
     11 C         138.7586  144.8478  165.2100 C.3     1  UNL1        0.1161
     12 C         139.9636  144.6900  164.3308 C.ar    1  UNL1        0.0886
     13 N         140.0451  145.4322  163.0298 N.ar    1  UNL1       -0.2425
     14 C         141.2500  145.2745  162.1505 C.ar    1  UNL1        0.1385
     15 C         142.3736  144.3746  162.5721 C.ar    1  UNL1        0.1923
     16 C         142.2921  143.6324  163.8731 C.ar    1  UNL1        0.1856
     17 C         141.0872  143.7901  164.7524 C.ar    1  UNL1        0.1094
     18 CL        141.0057  143.0479  166.0534 Cl      1  UNL1       -0.0777
     19 O         143.4156  142.7324  164.2948 O.3     1  UNL1       -0.4674
     20 C         144.6206  142.5747  163.4155 C.3     1  UNL1        0.2527
     21 C         144.7021  143.3169  162.1146 C.3     1  UNL1        0.2527
     22 O         143.5785  144.2169  161.6928 O.3     1  UNL1       -0.4668
     23 C         138.1349  138.9330  161.7640 C.3     1  UNL1        0.0604
     24 O         137.9659  139.8779  156.7280 O.2     1  UNL1       -0.2670
     25 C         139.3030  139.3726  157.1829 C.ar    1  UNL1        0.2611
     26 C         140.4145  139.1950  156.1916 C.ar    1  UNL1        0.0623
     27 C         141.7516  138.6897  156.6465 C.ar    1  UNL1        0.0254
     28 C         141.9771  138.3620  158.0928 C.ar    1  UNL1        0.0972
     29 N         143.1917  137.8473  158.8209 N.ar    1  UNL1       -0.2400
     30 C         143.2682  137.5627  160.2917 C.ar    1  UNL1        0.1282
     31 C         142.0684  137.7897  161.1628 C.ar    1  UNL1        0.1588
     32 F         142.1448  137.5051  162.6336 F       1  UNL1       -0.2027
     33 C         140.7921  138.3013  160.5633 C.ar    1  UNL1        0.0500
     34 C         140.8655  138.5397  159.0842 C.ar    1  UNL1        0.0806
     35 N         139.5285  139.0450  158.6292 N.ar    1  UNL1       -0.2915
     36 C         138.6288  139.1188  159.8272 C.3     1  UNL1        0.1402
     37 C         139.4097  138.6592  161.0225 C.3     1  UNL1        0.1335
     38 O         139.9242  138.2567  162.3728 O.3     1  UNL1       -0.3806
     39 H         139.2206  138.3636  163.0319 H       1  UNL1        0.2108
@<TRIPOS>BOND
     1    24    25    2
     2    25    26   ar
     3    26    27   ar
     4    27    28   ar
     5    28    29   ar
     6    29    30   ar
     7    30    31   ar
     8    31    32    1
     9    31    33   ar
    10    33    34   ar
    11    34    35   ar
    12    35    36    1
    13    36    37    1
    14    37    38    1
    15    37    23    1
    16    23     1    1
    17     1     2    1
    18     2     3    1
    19     3     4    1
    20     4     9    1
    21     9    11    1
    22    11    12    1
    23    12    13   ar
    24    13    14   ar
    25    14    15   ar
    26    15    16   ar
    27    16    17   ar
    28    17    18    1
    29    16    19    1
    30    19    20    1
    31    20    21    1
    32    21    22    1
    33     4     5    1
    34     5     6    1
    35     4     7    1
    36     7     8    1
    37    35    25   ar
    38     6     1    1
    39    34    28   ar
    40     8     1    1
    41    37    33    1
    42    17    12   ar
    43    22    15    1
    44    38    39    1
    45     9    10    1
@<TRIPOS>MOLECULE
*****
 39 45 0 0 0
SMALL
GASTEIGER

@<TRIPOS>ATOM
      1 C         138.7279  139.0078  164.1419 C.3     1  UNL1        0.0955
      2 C         138.0736  140.3190  163.8211 C.3     1  UNL1        0.0287
      3 C         137.5553  140.5800  162.4379 C.3     1  UNL1        0.0193
      4 C         137.6912  139.5298  161.3755 C.3     1  UNL1        0.0700
      5 C         138.3455  138.2187  161.6962 C.3     1  UNL1        0.0193
      6 C         138.8639  137.9577  163.0795 C.3     1  UNL1        0.0287
      7 C         137.9906  139.3409  162.1190 C.3     1  UNL1        0.1562
      8 O         138.4593  139.1050  163.3696 O.3     1  UNL1       -0.3571
      9 N         137.1729  139.7908  159.9922 N.3     1  UNL1       -0.2925
     10 H         136.2844  140.2805  160.0982 H       1  UNL1        0.1236
     11 C         137.9934  140.5876  159.0219 C.3     1  UNL1        0.1161
     12 C         139.1382  141.4218  159.5155 C.ar    1  UNL1        0.0886
     13 N         138.9208  142.8658  159.8585 N.ar    1  UNL1       -0.2425
     14 C         140.0654  143.7000  160.3521 C.ar    1  UNL1        0.1385
     15 C         141.4276  143.0903  160.5029 C.ar    1  UNL1        0.1923
     16 C         141.6451  141.6463  160.1599 C.ar    1  UNL1        0.1856
     17 C         140.5004  140.8121  159.6662 C.ar    1  UNL1        0.1094
     18 CL        140.7178  139.3681  159.3233 Cl      1  UNL1       -0.0777
     19 O         143.0072  141.0365  160.3106 O.3     1  UNL1       -0.4674
     20 C         144.1519  141.8708  160.8043 C.3     1  UNL1        0.2527
     21 C         143.9345  143.3147  161.1472 C.3     1  UNL1        0.2527
     22 O         142.5723  143.9246  160.9965 O.3     1  UNL1       -0.4668
     23 C         139.2463  138.7469  165.5251 C.3     1  UNL1        0.0604
     24 O         138.0868  140.0570  170.3439 O.2     1  UNL1       -0.2670
     25 C         139.3293  140.7286  169.8389 C.ar    1  UNL1        0.2611
     26 C         140.0865  141.6707  170.7272 C.ar    1  UNL1        0.0623
     27 C         141.3291  142.3423  170.2222 C.ar    1  UNL1        0.0254
     28 C         141.8144  142.0718  168.8289 C.ar    1  UNL1        0.0972
     29 N         143.0066  142.5937  168.0695 N.ar    1  UNL1       -0.2400
     30 C         143.3685  142.2273  166.6607 C.ar    1  UNL1        0.1282
     31 C         142.5112  141.2661  165.8919 C.ar    1  UNL1        0.1588
     32 F         142.8732  140.8997  164.4831 F       1  UNL1       -0.2027
     33 C         141.2918  140.6714  166.5318 C.ar    1  UNL1        0.0500
     34 C         141.0572  141.1297  167.9407 C.ar    1  UNL1        0.0806
     35 N         139.8146  140.4581  168.4457 N.ar    1  UNL1       -0.2915
     36 C         139.2814  139.5847  167.3489 C.3     1  UNL1        0.1402
     37 C         140.1944  139.7165  166.1661 C.3     1  UNL1        0.1335
     38 O         140.9091  139.6457  164.8492 O.3     1  UNL1       -0.3806
     39 H         140.4362  139.0405  164.2568 H       1  UNL1        0.2108
@<TRIPOS>BOND
     1    24    25    2
     2    25    26   ar
     3    26    27   ar
     4    27    28   ar
     5    28    29   ar
     6    29    30   ar
     7    30    31   ar
     8    31    32    1
     9    31    33   ar
    10    33    34   ar
    11    34    35   ar
    12    35    36    1
    13    36    37    1
    14    37    38    1
    15    37    23    1
    16    23     1    1
    17     1     2    1
    18     2     3    1
    19     3     4    1
    20     4     9    1
    21     9    11    1
    22    11    12    1
    23    12    13   ar
    24    13    14   ar
    25    14    15   ar
    26    15    16   ar
    27    16    17   ar
    28    17    18    1
    29    16    19    1
    30    19    20    1
    31    20    21    1
    32    21    22    1
    33     4     5    1
    34     5     6    1
    35     4     7    1
    36     7     8    1
    37    35    25   ar
    38     6     1    1
    39    34    28   ar
    40     8     1    1
    41    37    33    1
    42    17    12   ar
    43    22    15    1
    44    38    39    1
    45     9    10    1
@<TRIPOS>MOLECULE
*****
 39 45 0 0 0
SMALL
GASTEIGER

@<TRIPOS>ATOM
      1 C         138.2448  141.6483  164.7131 C.3     1  UNL1        0.0955
      2 C         139.0991  142.5865  165.5132 C.3     1  UNL1        0.0287
      3 C         139.9618  142.0563  166.6199 C.3     1  UNL1        0.0193
      4 C         139.9701  140.5880  166.9266 C.3     1  UNL1        0.0700
      5 C         139.1158  139.6499  166.1265 C.3     1  UNL1        0.0193
      6 C         138.2531  140.1800  165.0198 C.3     1  UNL1        0.0287
      7 C         139.4810  140.8317  166.3105 C.3     1  UNL1        0.1562
      8 O         138.7010  141.3111  165.3099 O.3     1  UNL1       -0.3571
      9 N         140.8327  140.0578  168.0333 N.3     1  UNL1       -0.2925
     10 H         140.3782  139.2141  168.3825 H       1  UNL1        0.1236
     11 C         142.2635  139.6983  167.7622 C.3     1  UNL1        0.1161
     12 C         142.8235  139.8413  166.3780 C.ar    1  UNL1        0.0886
     13 N         142.8659  138.6558  165.4600 N.ar    1  UNL1       -0.2425
     14 C         143.4258  138.7986  164.0758 C.ar    1  UNL1        0.1385
     15 C         143.9434  140.1271  163.6095 C.ar    1  UNL1        0.1923
     16 C         143.9010  141.3126  164.5275 C.ar    1  UNL1        0.1856
     17 C         143.3410  141.1697  165.9117 C.ar    1  UNL1        0.1094
     18 CL        143.2986  142.3553  166.8297 Cl      1  UNL1       -0.0777
     19 O         144.4185  142.6411  164.0613 O.3     1  UNL1       -0.4674
     20 C         144.9784  142.7839  162.6771 C.3     1  UNL1        0.2527
     21 C         145.0209  141.5985  161.7591 C.3     1  UNL1        0.2527
     22 O         144.5033  140.2699  162.2253 O.3     1  UNL1       -0.4668
     23 C         137.3822  142.1784  163.6064 C.3     1  UNL1        0.0604
     24 O         140.2956  146.1252  162.1172 O.2     1  UNL1       -0.2670
     25 C         140.0831  145.1133  161.0305 C.ar    1  UNL1        0.2611
     26 C         140.7006  145.3226  159.6796 C.ar    1  UNL1        0.0623
     27 C         140.4881  144.3107  158.5929 C.ar    1  UNL1        0.0254
     28 C         139.6582  143.0895  158.8571 C.ar    1  UNL1        0.0972
     29 N         139.2826  141.9287  157.9728 N.ar    1  UNL1       -0.2400
     30 C         138.4328  140.7626  158.3826 C.ar    1  UNL1        0.1282
     31 C         137.8817  140.6893  159.7757 C.ar    1  UNL1        0.1588
     32 F         137.0318  139.5232  160.1856 F       1  UNL1       -0.2027
     33 C         138.1803  141.7820  160.7590 C.ar    1  UNL1        0.0500
     34 C         139.0407  142.8802  160.2080 C.ar    1  UNL1        0.0806
     35 N         139.2532  143.8921  161.2947 N.ar    1  UNL1       -0.2915
     36 C         138.5241  143.4192  162.5173 C.3     1  UNL1        0.1402
     37 C         137.8610  142.1151  162.1863 C.3     1  UNL1        0.1335
     38 O         137.0978  140.8242  162.1521 O.3     1  UNL1       -0.3806
     39 H         136.6887  140.6675  163.0175 H       1  UNL1        0.2108
@<TRIPOS>BOND
     1    24    25    2
     2    25    26   ar
     3    26    27   ar
     4    27    28   ar
     5    28    29   ar
     6    29    30   ar
     7    30    31   ar
     8    31    32    1
     9    31    33   ar
    10    33    34   ar
    11    34    35   ar
    12    35    36    1
    13    36    37    1
    14    37    38    1
    15    37    23    1
    16    23     1    1
    17     1     2    1
    18     2     3    1
    19     3     4    1
    20     4     9    1
    21     9    11    1
    22    11    12    1
    23    12    13   ar
    24    13    14   ar
    25    14    15   ar
    26    15    16   ar
    27    16    17   ar
    28    17    18    1
    29    16    19    1
    30    19    20    1
    31    20    21    1
    32    21    22    1
    33     4     5    1
    34     5     6    1
    35     4     7    1
    36     7     8    1
    37    35    25   ar
    38     6     1    1
    39    34    28   ar
    40     8     1    1
    41    37    33    1
    42    17    12   ar
    43    22    15    1
    44    38    39    1
    45     9    10    1
@<TRIPOS>MOLECULE
*****
 39 45 0 0 0
SMALL
GASTEIGER

@<TRIPOS>ATOM
      1 C         138.1102  140.5107  164.0412 C.3     1  UNL1        0.0955
      2 C         138.0267  139.8023  162.7215 C.3     1  UNL1        0.0287
      3 C         137.9765  140.5928  161.4478 C.3     1  UNL1        0.0193
      4 C         138.0098  142.0918  161.4935 C.3     1  UNL1        0.0700
      5 C         138.0933  142.8001  162.8131 C.3     1  UNL1        0.0193
      6 C         138.1435  142.0096  164.0870 C.3     1  UNL1        0.0287
      7 C         138.0396  141.7015  162.2180 C.3     1  UNL1        0.1562
      8 O         138.0849  140.9867  163.3698 O.3     1  UNL1       -0.3571
      9 N         137.9596  142.8823  160.2198 N.3     1  UNL1       -0.2925
     10 H         137.5112  143.7710  160.4422 H       1  UNL1        0.1236
     11 C         139.2283  143.2085  159.4891 C.3     1  UNL1        0.1161
     12 C         140.5408  142.6882  159.9960 C.ar    1  UNL1        0.0886
     13 N         141.0640  141.3700  159.5076 N.ar    1  UNL1       -0.2425
     14 C         142.3763  140.8496  160.0145 C.ar    1  UNL1        0.1385
     15 C         143.1655  141.6474  161.0098 C.ar    1  UNL1        0.1923
     16 C         142.6423  142.9656  161.4982 C.ar    1  UNL1        0.1856
     17 C         141.3299  143.4860  160.9914 C.ar    1  UNL1        0.1094
     18 CL        140.8067  144.8042  161.4798 Cl      1  UNL1       -0.0777
     19 O         143.4314  143.7635  162.4935 O.3     1  UNL1       -0.4674
     20 C         144.7437  143.2432  163.0004 C.3     1  UNL1        0.2527
     21 C         145.2670  141.9250  162.5120 C.3     1  UNL1        0.2527
     22 O         144.4779  141.1271  161.5166 O.3     1  UNL1       -0.4668
     23 C         138.1604  139.7201  165.3150 C.3     1  UNL1        0.0604
     24 O         138.1008  140.7236  170.3421 O.2     1  UNL1       -0.2670
     25 C         139.4455  140.2747  169.8520 C.ar    1  UNL1        0.2611
     26 C         140.5938  140.1621  170.8104 C.ar    1  UNL1        0.0623
     27 C         141.9386  139.7132  170.3203 C.ar    1  UNL1        0.0254
     28 C         142.1350  139.3771  168.8717 C.ar    1  UNL1        0.0972
     29 N         143.3496  138.9095  168.1125 N.ar    1  UNL1       -0.2400
     30 C         143.3945  138.6091  166.6436 C.ar    1  UNL1        0.1282
     31 C         142.1595  138.7686  165.8074 C.ar    1  UNL1        0.1588
     32 F         142.2044  138.4682  164.3385 F       1  UNL1       -0.2027
     33 C         140.8795  139.2284  166.4401 C.ar    1  UNL1        0.0500
     34 C         140.9867  139.4898  167.9133 C.ar    1  UNL1        0.0806
     35 N         139.6419  139.9386  168.4034 N.ar    1  UNL1       -0.2915
     36 C         138.7037  139.9546  167.2331 C.3     1  UNL1        0.1402
     37 C         139.4686  139.5157  166.0197 C.3     1  UNL1        0.1335
     38 O         139.9600  139.1195  164.6590 O.3     1  UNL1       -0.3806
     39 H         139.2324  139.1848  164.0208 H       1  UNL1        0.2108
@<TRIPOS>BOND
     1    24    25    2
     2    25    26   ar
     3    26    27   ar
     4    27    28   ar
     5    28    29   ar
     6    29    30   ar
     7    30    31   ar
     8    31    32    1
     9    31    33   ar
    10    33    34   ar
    11    34    35   ar
    12    35    36    1
    13    36    37    1
    14    37    38    1
    15    37    23    1
    16    23     1    1
    17     1     2    1
    18     2     3    1
    19     3     4    1
    20     4     9    1
    21     9    11    1
    22    11    12    1
    23    12    13   ar
    24    13    14   ar
    25    14    15   ar
    26    15    16   ar
    27    16    17   ar
    28    17    18    1
    29    16    19    1
    30    19    20    1
    31    20    21    1
    32    21    22    1
    33     4     5    1
    34     5     6    1
    35     4     7    1
    36     7     8    1
    37    35    25   ar
    38     6     1    1
    39    34    28   ar
    40     8     1    1
    41    37    33    1
    42    17    12   ar
    43    22    15    1
    44    38    39    1
    45     9    10    1
@<TRIPOS>MOLECULE
*****
 39 45 0 0 0
SMALL
GASTEIGER

@<TRIPOS>ATOM
      1 C         143.9572  139.6127  164.3772 C.3     1  UNL1        0.0955
      2 C         143.9042  139.1153  162.9629 C.3     1  UNL1        0.0287
      3 C         144.3585  139.9994  161.8395 C.3     1  UNL1        0.0193
      4 C         144.8658  141.3807  162.1302 C.3     1  UNL1        0.0700
      5 C         144.9188  141.8780  163.5443 C.3     1  UNL1        0.0193
      6 C         144.4645  140.9940  164.6679 C.3     1  UNL1        0.0287
      7 C         144.6278  140.9328  162.7789 C.3     1  UNL1        0.1562
      8 O         144.2170  140.1335  163.7947 O.3     1  UNL1       -0.3571
      9 N         145.3202  142.2647  161.0067 N.3     1  UNL1       -0.2925
     10 H         145.7615  141.6587  160.3151 H       1  UNL1        0.1236
     11 C         144.3254  143.1109  160.2690 C.3     1  UNL1        0.1161
     12 C         142.8742  143.0626  160.6456 C.ar    1  UNL1        0.0886
     13 N         141.9331  142.1701  159.8921 N.ar    1  UNL1       -0.2425
     14 C         140.4820  142.1218  160.2686 C.ar    1  UNL1        0.1385
     15 C         139.9718  142.9660  161.3986 C.ar    1  UNL1        0.1923
     16 C         140.9128  143.8585  162.1522 C.ar    1  UNL1        0.1856
     17 C         142.3640  143.9069  161.7757 C.ar    1  UNL1        0.1094
     18 CL        143.3050  144.7994  162.5292 Cl      1  UNL1       -0.0777
     19 O         140.4028  144.7028  163.2822 O.3     1  UNL1       -0.4674
     20 C         138.9516  144.6544  163.6587 C.3     1  UNL1        0.2527
     21 C         138.0105  143.7620  162.9053 C.3     1  UNL1        0.2527
     22 O         138.5206  142.9177  161.7752 O.3     1  UNL1       -0.4668
     23 C         143.5029  138.7287  165.5006 C.3     1  UNL1        0.0604
     24 O         143.4487  140.6578  170.2501 O.2     1  UNL1       -0.2670
     25 C         142.0744  140.3831  169.7155 C.ar    1  UNL1        0.2611
     26 C         140.8691  140.6759  170.5591 C.ar    1  UNL1        0.0623
     27 C         139.4948  140.4012  170.0245 C.ar    1  UNL1        0.0254
     28 C         139.3257  139.8337  168.6464 C.ar    1  UNL1        0.0972
     29 N         138.0917  139.4644  167.8647 N.ar    1  UNL1       -0.2400
     30 C         138.0792  138.8989  166.4754 C.ar    1  UNL1        0.1282
     31 C         139.3710  138.6586  165.7519 C.ar    1  UNL1        0.1588
     32 F         139.3585  138.0931  164.3626 F       1  UNL1       -0.2027
     33 C         140.6753  138.9837  166.4176 C.ar    1  UNL1        0.0500
     34 C         140.5310  139.5410  167.8028 C.ar    1  UNL1        0.0806
     35 N         141.9053  139.8156  168.3374 N.ar    1  UNL1       -0.2915
     36 C         142.8989  139.4282  167.2826 C.3     1  UNL1        0.1402
     37 C         142.1387  138.9140  166.0961 C.3     1  UNL1        0.1335
     38 O         141.6637  138.3611  164.7852 O.3     1  UNL1       -0.3806
     39 H         142.4280  138.1637  164.2215 H       1  UNL1        0.2108
@<TRIPOS>BOND
     1    24    25    2
     2    25    26   ar
     3    26    27   ar
     4    27    28   ar
     5    28    29   ar
     6    29    30   ar
     7    30    31   ar
     8    31    32    1
     9    31    33   ar
    10    33    34   ar
    11    34    35   ar
    12    35    36    1
    13    36    37    1
    14    37    38    1
    15    37    23    1
    16    23     1    1
    17     1     2    1
    18     2     3    1
    19     3     4    1
    20     4     9    1
    21     9    11    1
    22    11    12    1
    23    12    13   ar
    24    13    14   ar
    25    14    15   ar
    26    15    16   ar
    27    16    17   ar
    28    17    18    1
    29    16    19    1
    30    19    20    1
    31    20    21    1
    32    21    22    1
    33     4     5    1
    34     5     6    1
    35     4     7    1
    36     7     8    1
    37    35    25   ar
    38     6     1    1
    39    34    28   ar
    40     8     1    1
    41    37    33    1
    42    17    12   ar
    43    22    15    1
    44    38    39    1
    45     9    10    1
