@<TRIPOS>MOLECULE
*****
 38 41 0 0 0
SMALL
GASTEIGER

@<TRIPOS>ATOM
      1 C         141.2331  138.8217  159.6133 C.3     1  UNL1        0.0310
      2 C         141.2527  139.0807  161.0907 C.ar    1  UNL1       -0.0218
      3 C         140.7637  138.0299  162.0429 C.ar    1  UNL1       -0.0030
      4 C         140.7833  138.2889  163.5202 C.ar    1  UNL1        0.0144
      5 C         141.2919  139.5986  164.0454 C.ar    1  UNL1        0.0505
      6 C         141.7809  140.6494  163.0932 C.ar    1  UNL1        0.0144
      7 C         141.7613  140.3904  161.6158 C.ar    1  UNL1       -0.0025
      8 C         142.2504  141.4412  160.6636 C.ar    1  UNL1        0.0072
      9 C         141.7057  142.8366  160.7423 C.ar    1  UNL1        0.0578
     10 C         142.1947  143.8874  159.7902 C.ar    1  UNL1        0.2261
     11 N         143.2285  143.5429  158.7593 N.ar    1  UNL1       -0.1967
     12 C         143.7731  142.1475  158.6805 C.ar    1  UNL1        0.1349
     13 C         143.2841  141.0966  159.6328 C.ar    1  UNL1        0.0345
     14 N         144.8068  141.8029  157.6497 N.pl3   1  UNL1       -0.2880
     15 C         144.6186  140.6018  156.7712 C.3     1  UNL1        0.1242
     16 C         145.6523  140.2571  155.7403 C.3     1  UNL1        0.1636
     17 O         146.8742  141.1137  155.5879 O.3     1  UNL1       -0.3501
     18 C         147.0624  142.3149  156.4665 C.3     1  UNL1        0.1636
     19 C         146.0288  142.6594  157.4973 C.3     1  UNL1        0.1242
     20 O         141.6501  145.2828  159.8689 O.3     1  UNL1       -0.4575
     21 C         140.2257  145.5099  160.2808 C.3     1  UNL1        0.2387
     22 C         139.9202  146.1507  161.6022 C.3     1  UNL1        0.1848
     23 O         140.9323  146.1076  162.7085 O.3     1  UNL1       -0.3784
     24 H         141.0562  145.1901  162.9979 H       1  UNL1        0.2106
     25 N         141.3115  139.8576  165.5227 N.am    1  UNL1       -0.2804
     26 C         140.1251  140.4886  166.1893 C.2     1  UNL1        0.2496
     27 O         138.9191  140.8606  165.3786 O.2     1  UNL1       -0.2698
     28 H         142.1030  139.6135  166.0548 H       1  UNL1        0.1552
     29 C         140.1447  140.7476  167.6667 C.ar    1  UNL1        0.0567
     30 C         139.1865  140.0260  168.5674 C.ar    1  UNL1        0.0252
     31 C         139.2061  140.2850  170.0447 C.ar    1  UNL1        0.0989
     32 N         140.1839  141.2656  170.6214 N.ar    1  UNL1       -0.2399
     33 C         141.1421  141.9871  169.7207 C.ar    1  UNL1        0.1528
     34 C         141.1225  141.7281  168.2433 C.ar    1  UNL1        0.0276
     35 C         142.1198  142.9676  170.2973 C.3     1  UNL1        0.4348
     36 F         143.0976  143.9482  170.8740 F       1  UNL1       -0.1644
     37 F         143.0756  141.8472  170.5819 F       1  UNL1       -0.1644
     38 F         141.1640  144.0881  170.0127 F       1  UNL1       -0.1644
@<TRIPOS>BOND
     1     1     2    1
     2     2     3   ar
     3     3     4   ar
     4     4     5   ar
     5     5    25    1
     6    25    26   am
     7    26    27    2
     8    26    29    1
     9    29    30   ar
    10    30    31   ar
    11    31    32   ar
    12    32    33   ar
    13    33    35    1
    14    35    36    1
    15    35    37    1
    16    35    38    1
    17    33    34   ar
    18     5     6   ar
    19     6     7   ar
    20     7     8    1
    21     8     9   ar
    22     9    10   ar
    23    10    20    1
    24    20    21    1
    25    21    22    1
    26    22    23    1
    27    10    11   ar
    28    11    12   ar
    29    12    14    1
    30    14    15    1
    31    15    16    1
    32    16    17    1
    33    17    18    1
    34    18    19    1
    35    12    13   ar
    36     7     2   ar
    37    13     8   ar
    38    34    29   ar
    39    19    14    1
    40    25    28    1
    41    23    24    1
@<TRIPOS>MOLECULE
*****
 38 41 0 0 0
SMALL
GASTEIGER

@<TRIPOS>ATOM
      1 C         140.3177  142.2034  154.3884 C.3     1  UNL1        0.0310
      2 C         138.8328  142.0347  154.5170 C.ar    1  UNL1       -0.0218
      3 C         138.1475  140.8838  153.8420 C.ar    1  UNL1       -0.0030
      4 C         136.6626  140.7150  153.9705 C.ar    1  UNL1        0.0144
      5 C         135.8630  141.6972  154.7741 C.ar    1  UNL1        0.0505
      6 C         136.5482  142.8482  155.4491 C.ar    1  UNL1        0.0144
      7 C         138.0332  143.0169  155.3206 C.ar    1  UNL1       -0.0025
      8 C         138.7184  144.1679  155.9956 C.ar    1  UNL1        0.0072
      9 C         139.4772  143.9459  157.2703 C.ar    1  UNL1        0.0578
     10 C         140.1625  145.0968  157.9454 C.ar    1  UNL1        0.2261
     11 N         140.0890  146.4699  157.3457 N.ar    1  UNL1       -0.1967
     12 C         139.3302  146.6918  156.0710 C.ar    1  UNL1        0.1349
     13 C         138.6449  145.5408  155.3959 C.ar    1  UNL1        0.0345
     14 N         139.2566  148.0648  155.4713 N.pl3   1  UNL1       -0.2880
     15 C         138.5757  149.1736  156.2176 C.3     1  UNL1        0.1242
     16 C         138.5021  150.5466  155.6179 C.3     1  UNL1        0.1636
     17 O         139.1095  150.8107  154.2720 O.3     1  UNL1       -0.3501
     18 C         139.7904  149.7018  153.5258 C.3     1  UNL1        0.1636
     19 C         139.8639  148.3289  154.1255 C.3     1  UNL1        0.1242
     20 O         140.9213  144.8749  159.2201 O.3     1  UNL1       -0.4575
     21 C         140.1805  144.6215  160.4995 C.3     1  UNL1        0.2387
     22 C         139.9362  145.7472  161.4603 C.3     1  UNL1        0.1848
     23 O         139.1799  146.9634  161.0141 O.3     1  UNL1       -0.3784
     24 H         139.6937  147.4343  160.3395 H       1  UNL1        0.2106
     25 N         134.3780  141.5285  154.9027 N.am    1  UNL1       -0.2804
     26 C         133.8111  140.6989  156.0164 C.2     1  UNL1        0.2496
     27 O         134.7291  140.0379  157.0015 O.2     1  UNL1       -0.2698
     28 H         133.7755  141.9623  154.2561 H       1  UNL1        0.1552
     29 C         132.3262  140.5301  156.1450 C.ar    1  UNL1        0.0567
     30 C         131.4000  141.4705  155.4322 C.ar    1  UNL1        0.0252
     31 C         129.9151  141.3018  155.5608 C.ar    1  UNL1        0.0989
     32 N         129.3564  140.1927  156.4021 N.ar    1  UNL1       -0.2399
     33 C         130.2825  139.2524  157.1148 C.ar    1  UNL1        0.1528
     34 C         131.7675  139.4211  156.9863 C.ar    1  UNL1        0.0276
     35 C         129.7238  138.1433  157.9561 C.3     1  UNL1        0.4348
     36 F         129.1650  137.0342  158.7974 F       1  UNL1       -0.1644
     37 F         129.5368  139.1015  159.0949 F       1  UNL1       -0.1644
     38 F         129.9108  137.1852  156.8173 F       1  UNL1       -0.1644
@<TRIPOS>BOND
     1     1     2    1
     2     2     3   ar
     3     3     4   ar
     4     4     5   ar
     5     5    25    1
     6    25    26   am
     7    26    27    2
     8    26    29    1
     9    29    30   ar
    10    30    31   ar
    11    31    32   ar
    12    32    33   ar
    13    33    35    1
    14    35    36    1
    15    35    37    1
    16    35    38    1
    17    33    34   ar
    18     5     6   ar
    19     6     7   ar
    20     7     8    1
    21     8     9   ar
    22     9    10   ar
    23    10    20    1
    24    20    21    1
    25    21    22    1
    26    22    23    1
    27    10    11   ar
    28    11    12   ar
    29    12    14    1
    30    14    15    1
    31    15    16    1
    32    16    17    1
    33    17    18    1
    34    18    19    1
    35    12    13   ar
    36     7     2   ar
    37    13     8   ar
    38    34    29   ar
    39    19    14    1
    40    25    28    1
    41    23    24    1
@<TRIPOS>MOLECULE
*****
 38 41 0 0 0
SMALL
GASTEIGER

@<TRIPOS>ATOM
      1 C         142.0730  139.6513  156.0383 C.3     1  UNL1        0.0310
      2 C         142.6001  138.2512  156.1477 C.ar    1  UNL1       -0.0218
      3 C         143.0749  137.5306  154.9208 C.ar    1  UNL1       -0.0030
      4 C         143.6020  136.1305  155.0302 C.ar    1  UNL1        0.0144
      5 C         143.6542  135.4510  156.3664 C.ar    1  UNL1        0.0505
      6 C         143.1794  136.1716  157.5932 C.ar    1  UNL1        0.0144
      7 C         142.6523  137.5717  157.4839 C.ar    1  UNL1       -0.0025
      8 C         142.1775  138.2923  158.7108 C.ar    1  UNL1        0.0072
      9 C         140.7095  138.5024  158.9362 C.ar    1  UNL1        0.0578
     10 C         140.2346  139.2230  160.1631 C.ar    1  UNL1        0.2261
     11 N         141.2278  139.7335  161.1647 N.ar    1  UNL1       -0.1967
     12 C         142.6958  139.5234  160.9393 C.ar    1  UNL1        0.1349
     13 C         143.1707  138.8028  159.7123 C.ar    1  UNL1        0.0345
     14 N         143.6890  140.0338  161.9408 N.pl3   1  UNL1       -0.2880
     15 C         143.9805  139.2399  163.1796 C.3     1  UNL1        0.1242
     16 C         144.9737  139.7503  164.1812 C.3     1  UNL1        0.1636
     17 O         145.6753  141.0547  163.9439 O.3     1  UNL1       -0.3501
     18 C         145.3838  141.8486  162.7050 C.3     1  UNL1        0.1636
     19 C         144.3906  141.3382  161.7035 C.3     1  UNL1        0.1242
     20 O         138.7666  139.4331  160.3885 O.3     1  UNL1       -0.4575
     21 C         138.2863  140.6569  161.1105 C.3     1  UNL1        0.2387
     22 C         137.8577  140.5618  162.5448 C.3     1  UNL1        0.1848
     23 O         136.6087  141.2555  163.0020 O.3     1  UNL1       -0.3784
     24 H         136.7278  142.2156  162.9314 H       1  UNL1        0.2106
     25 N         144.1813  134.0509  156.4757 N.am    1  UNL1       -0.2804
     26 C         143.2436  132.8856  156.3629 C.2     1  UNL1        0.2496
     27 O         141.7788  133.1204  156.1406 O.2     1  UNL1       -0.2698
     28 H         145.1427  133.8969  156.6216 H       1  UNL1        0.1552
     29 C         143.7707  131.4855  156.4722 C.ar    1  UNL1        0.0567
     30 C         144.2722  130.7753  155.2498 C.ar    1  UNL1        0.0252
     31 C         144.7992  129.3752  155.3592 C.ar    1  UNL1        0.0989
     32 N         144.8248  128.6854  156.6909 N.ar    1  UNL1       -0.2399
     33 C         144.3234  129.3956  157.9132 C.ar    1  UNL1        0.1528
     34 C         143.7963  130.7957  157.8039 C.ar    1  UNL1        0.0276
     35 C         144.3490  128.7057  159.2449 C.3     1  UNL1        0.4348
     36 F         144.3746  128.0158  160.5766 F       1  UNL1       -0.1644
     37 F         145.8483  128.7503  159.2391 F       1  UNL1       -0.1644
     38 F         142.8497  128.6612  159.2507 F       1  UNL1       -0.1644
@<TRIPOS>BOND
     1     1     2    1
     2     2     3   ar
     3     3     4   ar
     4     4     5   ar
     5     5    25    1
     6    25    26   am
     7    26    27    2
     8    26    29    1
     9    29    30   ar
    10    30    31   ar
    11    31    32   ar
    12    32    33   ar
    13    33    35    1
    14    35    36    1
    15    35    37    1
    16    35    38    1
    17    33    34   ar
    18     5     6   ar
    19     6     7   ar
    20     7     8    1
    21     8     9   ar
    22     9    10   ar
    23    10    20    1
    24    20    21    1
    25    21    22    1
    26    22    23    1
    27    10    11   ar
    28    11    12   ar
    29    12    14    1
    30    14    15    1
    31    15    16    1
    32    16    17    1
    33    17    18    1
    34    18    19    1
    35    12    13   ar
    36     7     2   ar
    37    13     8   ar
    38    34    29   ar
    39    19    14    1
    40    25    28    1
    41    23    24    1
@<TRIPOS>MOLECULE
*****
 38 41 0 0 0
SMALL
GASTEIGER

@<TRIPOS>ATOM
      1 C         141.8232  138.6149  159.3923 C.3     1  UNL1        0.0310
      2 C         141.9753  138.7968  160.8734 C.ar    1  UNL1       -0.0218
      3 C         141.6108  137.6812  161.8074 C.ar    1  UNL1       -0.0030
      4 C         141.7630  137.8632  163.2886 C.ar    1  UNL1        0.0144
      5 C         142.2796  139.1607  163.8357 C.ar    1  UNL1        0.0505
      6 C         142.6441  140.2763  162.9016 C.ar    1  UNL1        0.0144
      7 C         142.4920  140.0944  161.4205 C.ar    1  UNL1       -0.0025
      8 C         142.8565  141.2101  160.4864 C.ar    1  UNL1        0.0072
      9 C         142.1842  142.5449  160.6140 C.ar    1  UNL1        0.0578
     10 C         142.5487  143.6606  159.6800 C.ar    1  UNL1        0.2261
     11 N         143.5855  143.4415  158.6184 N.ar    1  UNL1       -0.1967
     12 C         144.2579  142.1067  158.4908 C.ar    1  UNL1        0.1349
     13 C         143.8933  140.9910  159.4249 C.ar    1  UNL1        0.0345
     14 N         145.2947  141.8876  157.4292 N.pl3   1  UNL1       -0.2880
     15 C         146.5523  142.7050  157.4292 C.3     1  UNL1        0.1242
     16 C         147.5892  142.4859  156.3676 C.3     1  UNL1        0.1636
     17 O         147.3684  141.4493  155.3061 O.3     1  UNL1       -0.3501
     18 C         146.1106  140.6319  155.3062 C.3     1  UNL1        0.1636
     19 C         145.0738  140.8510  156.3677 C.3     1  UNL1        0.1242
     20 O         141.8764  144.9954  159.8076 O.3     1  UNL1       -0.4575
     21 C         140.5127  145.0924  160.4248 C.3     1  UNL1        0.2387
     22 C         140.3658  145.5150  161.8565 C.3     1  UNL1        0.1848
     23 O         140.0469  146.9427  162.1882 O.3     1  UNL1       -0.3784
     24 H         140.7900  147.5090  161.9272 H       1  UNL1        0.2106
     25 N         142.4318  139.3427  165.3168 N.am    1  UNL1       -0.2804
     26 C         141.4316  140.1607  166.0786 C.2     1  UNL1        0.2496
     27 O         140.2792  140.7969  165.3593 O.2     1  UNL1       -0.2698
     28 H         143.1881  138.9251  165.7889 H       1  UNL1        0.1552
     29 C         141.5838  140.3426  167.5597 C.ar    1  UNL1        0.0567
     30 C         142.5276  139.4673  168.3299 C.ar    1  UNL1        0.0252
     31 C         142.6797  139.6492  169.8110 C.ar    1  UNL1        0.0989
     32 N         141.8881  140.7065  170.5220 N.ar    1  UNL1       -0.2399
     33 C         140.9443  141.5818  169.7519 C.ar    1  UNL1        0.1528
     34 C         140.7922  141.3999  168.2707 C.ar    1  UNL1        0.0276
     35 C         140.1527  142.6391  170.4629 C.3     1  UNL1        0.4348
     36 F         139.3611  143.6964  171.1739 F       1  UNL1       -0.1644
     37 F         140.3734  141.9284  171.7653 F       1  UNL1       -0.1644
     38 F         139.9321  143.3497  169.1605 F       1  UNL1       -0.1644
@<TRIPOS>BOND
     1     1     2    1
     2     2     3   ar
     3     3     4   ar
     4     4     5   ar
     5     5    25    1
     6    25    26   am
     7    26    27    2
     8    26    29    1
     9    29    30   ar
    10    30    31   ar
    11    31    32   ar
    12    32    33   ar
    13    33    35    1
    14    35    36    1
    15    35    37    1
    16    35    38    1
    17    33    34   ar
    18     5     6   ar
    19     6     7   ar
    20     7     8    1
    21     8     9   ar
    22     9    10   ar
    23    10    20    1
    24    20    21    1
    25    21    22    1
    26    22    23    1
    27    10    11   ar
    28    11    12   ar
    29    12    14    1
    30    14    15    1
    31    15    16    1
    32    16    17    1
    33    17    18    1
    34    18    19    1
    35    12    13   ar
    36     7     2   ar
    37    13     8   ar
    38    34    29   ar
    39    19    14    1
    40    25    28    1
    41    23    24    1
@<TRIPOS>MOLECULE
*****
 38 41 0 0 0
SMALL
GASTEIGER

@<TRIPOS>ATOM
      1 C         144.4749  143.9898  163.2672 C.3     1  UNL1        0.0310
      2 C         143.9053  143.0685  162.2296 C.ar    1  UNL1       -0.0218
      3 C         144.6126  142.8856  160.9196 C.ar    1  UNL1       -0.0030
      4 C         144.0430  141.9642  159.8820 C.ar    1  UNL1        0.0144
      5 C         142.7661  141.2257  160.1544 C.ar    1  UNL1        0.0505
      6 C         142.0589  141.4086  161.4645 C.ar    1  UNL1        0.0144
      7 C         142.6285  142.3300  162.5021 C.ar    1  UNL1       -0.0025
      8 C         141.9212  142.5129  163.8122 C.ar    1  UNL1        0.0072
      9 C         140.6977  143.3773  163.8897 C.ar    1  UNL1        0.0578
     10 C         139.9904  143.5602  165.1997 C.ar    1  UNL1        0.2261
     11 N         140.5065  142.8786  166.4323 N.ar    1  UNL1       -0.1967
     12 C         141.7299  142.0142  166.3548 C.ar    1  UNL1        0.1349
     13 C         142.4373  141.8313  165.0447 C.ar    1  UNL1        0.0345
     14 N         142.2460  141.3327  167.5873 N.pl3   1  UNL1       -0.2880
     15 C         142.1202  139.8448  167.7300 C.3     1  UNL1        0.1242
     16 C         142.6363  139.1632  168.9625 C.3     1  UNL1        0.1636
     17 O         143.2783  139.9695  170.0524 O.3     1  UNL1       -0.3501
     18 C         143.4041  141.4575  169.9096 C.3     1  UNL1        0.1636
     19 C         142.8880  142.1390  168.6771 C.3     1  UNL1        0.1242
     20 O         138.7670  144.4246  165.2773 O.3     1  UNL1       -0.4575
     21 C         137.5902  144.1400  164.3918 C.3     1  UNL1        0.2387
     22 C         137.6737  144.4195  162.9204 C.3     1  UNL1        0.1848
     23 O         137.4673  143.3091  161.9332 O.3     1  UNL1       -0.3784
     24 H         138.1869  142.6640  162.0170 H       1  UNL1        0.2106
     25 N         142.1965  140.3044  159.1168 N.am    1  UNL1       -0.2804
     26 C         142.6709  138.8838  159.0335 C.2     1  UNL1        0.2496
     27 O         143.7149  138.3846  159.9880 O.2     1  UNL1       -0.2698
     28 H         141.5113  140.6320  158.4904 H       1  UNL1        0.1552
     29 C         142.1013  137.9625  157.9959 C.ar    1  UNL1        0.0567
     30 C         140.7203  138.1987  157.4600 C.ar    1  UNL1        0.0252
     31 C         140.1507  137.2774  156.4224 C.ar    1  UNL1        0.0989
     32 N         140.9621  136.1197  155.9207 N.ar    1  UNL1       -0.2399
     33 C         142.3430  135.8835  156.4566 C.ar    1  UNL1        0.1528
     34 C         142.9126  136.8049  157.4942 C.ar    1  UNL1        0.0276
     35 C         143.1543  134.7260  155.9549 C.3     1  UNL1        0.4348
     36 F         143.9656  133.5683  155.4532 F       1  UNL1       -0.1644
     37 F         144.2083  135.6757  155.4680 F       1  UNL1       -0.1644
     38 F         142.1003  133.7762  156.4418 F       1  UNL1       -0.1644
@<TRIPOS>BOND
     1     1     2    1
     2     2     3   ar
     3     3     4   ar
     4     4     5   ar
     5     5    25    1
     6    25    26   am
     7    26    27    2
     8    26    29    1
     9    29    30   ar
    10    30    31   ar
    11    31    32   ar
    12    32    33   ar
    13    33    35    1
    14    35    36    1
    15    35    37    1
    16    35    38    1
    17    33    34   ar
    18     5     6   ar
    19     6     7   ar
    20     7     8    1
    21     8     9   ar
    22     9    10   ar
    23    10    20    1
    24    20    21    1
    25    21    22    1
    26    22    23    1
    27    10    11   ar
    28    11    12   ar
    29    12    14    1
    30    14    15    1
    31    15    16    1
    32    16    17    1
    33    17    18    1
    34    18    19    1
    35    12    13   ar
    36     7     2   ar
    37    13     8   ar
    38    34    29   ar
    39    19    14    1
    40    25    28    1
    41    23    24    1
@<TRIPOS>MOLECULE
*****
 38 41 0 0 0
SMALL
GASTEIGER

@<TRIPOS>ATOM
      1 C         144.3790  140.8879  158.9599 C.3     1  UNL1        0.0310
      2 C         143.6434  140.5005  160.2084 C.ar    1  UNL1       -0.0218
      3 C         144.0039  141.1352  161.5188 C.ar    1  UNL1       -0.0030
      4 C         143.2683  140.7478  162.7673 C.ar    1  UNL1        0.0144
      5 C         142.1722  139.7257  162.7055 C.ar    1  UNL1        0.0505
      6 C         141.8118  139.0910  161.3951 C.ar    1  UNL1        0.0144
      7 C         142.5474  139.4784  160.1466 C.ar    1  UNL1       -0.0025
      8 C         142.1869  138.8436  158.8361 C.ar    1  UNL1        0.0072
      9 C         141.3089  139.5753  157.8647 C.ar    1  UNL1        0.0578
     10 C         140.9484  138.9406  156.5543 C.ar    1  UNL1        0.2261
     11 N         141.4659  137.5740  156.2153 N.ar    1  UNL1       -0.1967
     12 C         142.3439  136.8423  157.1868 C.ar    1  UNL1        0.1349
     13 C         142.7044  137.4771  158.4972 C.ar    1  UNL1        0.0345
     14 N         142.8613  135.4758  156.8479 N.pl3   1  UNL1       -0.2880
     15 C         142.7299  134.9497  155.4493 C.3     1  UNL1        0.1242
     16 C         143.2474  133.5832  155.1103 C.3     1  UNL1        0.1636
     17 O         143.8963  132.7428  156.1699 O.3     1  UNL1       -0.3501
     18 C         144.0277  133.2690  157.5685 C.3     1  UNL1        0.1636
     19 C         143.5102  134.6354  157.9074 C.3     1  UNL1        0.1242
     20 O         140.0704  139.6724  155.5829 O.3     1  UNL1       -0.4575
     21 C         138.6333  139.2735  155.4232 C.3     1  UNL1        0.2387
     22 C         138.2863  137.8963  154.9407 C.3     1  UNL1        0.1848
     23 O         138.4993  136.7120  155.8364 O.3     1  UNL1       -0.3784
     24 H         139.4487  136.5937  155.9958 H       1  UNL1        0.2106
     25 N         141.4366  139.3383  163.9540 N.am    1  UNL1       -0.2804
     26 C         140.3869  140.2487  164.5191 C.2     1  UNL1        0.2496
     27 O         140.0728  141.5465  163.8356 O.2     1  UNL1       -0.2698
     28 H         141.6427  138.4865  164.4026 H       1  UNL1        0.1552
     29 C         139.6513  139.8613  165.7676 C.ar    1  UNL1        0.0567
     30 C         138.4093  139.0249  165.6774 C.ar    1  UNL1        0.0252
     31 C         137.6737  138.6375  166.9259 C.ar    1  UNL1        0.0989
     32 N         138.1800  139.0865  168.2646 N.ar    1  UNL1       -0.2399
     33 C         139.4220  139.9228  168.3548 C.ar    1  UNL1        0.1528
     34 C         140.1576  140.3102  167.1063 C.ar    1  UNL1        0.0276
     35 C         139.9283  140.3717  169.6934 C.3     1  UNL1        0.4348
     36 F         140.4346  140.8206  171.0322 F       1  UNL1       -0.1644
     37 F         138.6283  141.0749  169.9493 F       1  UNL1       -0.1644
     38 F         141.2282  139.6685  169.4376 F       1  UNL1       -0.1644
@<TRIPOS>BOND
     1     1     2    1
     2     2     3   ar
     3     3     4   ar
     4     4     5   ar
     5     5    25    1
     6    25    26   am
     7    26    27    2
     8    26    29    1
     9    29    30   ar
    10    30    31   ar
    11    31    32   ar
    12    32    33   ar
    13    33    35    1
    14    35    36    1
    15    35    37    1
    16    35    38    1
    17    33    34   ar
    18     5     6   ar
    19     6     7   ar
    20     7     8    1
    21     8     9   ar
    22     9    10   ar
    23    10    20    1
    24    20    21    1
    25    21    22    1
    26    22    23    1
    27    10    11   ar
    28    11    12   ar
    29    12    14    1
    30    14    15    1
    31    15    16    1
    32    16    17    1
    33    17    18    1
    34    18    19    1
    35    12    13   ar
    36     7     2   ar
    37    13     8   ar
    38    34    29   ar
    39    19    14    1
    40    25    28    1
    41    23    24    1
@<TRIPOS>MOLECULE
*****
 38 41 0 0 0
SMALL
GASTEIGER

@<TRIPOS>ATOM
      1 C         138.7888  137.9739  164.2047 C.3     1  UNL1        0.0310
      2 C         138.7314  139.0859  163.1997 C.ar    1  UNL1       -0.0218
      3 C         137.7423  139.0287  162.0735 C.ar    1  UNL1       -0.0030
      4 C         137.6849  140.1408  161.0685 C.ar    1  UNL1        0.0144
      5 C         138.6166  141.3100  161.1897 C.ar    1  UNL1        0.0505
      6 C         139.6056  141.3673  162.3159 C.ar    1  UNL1        0.0144
      7 C         139.6631  140.2552  163.3209 C.ar    1  UNL1       -0.0025
      8 C         140.6522  140.3125  164.4472 C.ar    1  UNL1        0.0072
      9 C         142.0958  139.9931  164.1944 C.ar    1  UNL1        0.0578
     10 C         143.0850  140.0503  165.3206 C.ar    1  UNL1        0.2261
     11 N         142.6305  140.4270  166.6996 N.ar    1  UNL1       -0.1967
     12 C         141.1868  140.7463  166.9524 C.ar    1  UNL1        0.1349
     13 C         140.1977  140.6891  165.8261 C.ar    1  UNL1        0.0345
     14 N         140.7323  141.1229  168.3313 N.pl3   1  UNL1       -0.2880
     15 C         140.5181  142.5654  168.6826 C.3     1  UNL1        0.1242
     16 C         140.0636  142.9421  170.0616 C.3     1  UNL1        0.1636
     17 O         139.8233  141.8762  171.0893 O.3     1  UNL1       -0.3501
     18 C         140.0375  140.4337  170.7380 C.3     1  UNL1        0.1636
     19 C         140.4920  140.0571  169.3591 C.3     1  UNL1        0.1242
     20 O         144.5286  139.7310  165.0678 O.3     1  UNL1       -0.4575
     21 C         145.0655  139.7436  163.6673 C.3     1  UNL1        0.2387
     22 C         145.2951  141.0484  162.9638 C.3     1  UNL1        0.1848
     23 O         146.4825  141.8933  163.3192 O.3     1  UNL1       -0.3784
     24 H         146.3902  142.2139  164.2300 H       1  UNL1        0.2106
     25 N         138.5592  142.4221  160.1847 N.am    1  UNL1       -0.2804
     26 C         139.2820  142.2894  158.8771 C.2     1  UNL1        0.2496
     27 O         140.0624  141.0445  158.5745 O.2     1  UNL1       -0.2698
     28 H         138.0470  143.2391  160.3833 H       1  UNL1        0.1552
     29 C         139.2246  143.4014  157.8722 C.ar    1  UNL1        0.0567
     30 C         140.1095  144.6023  158.0310 C.ar    1  UNL1        0.0252
     31 C         140.0521  145.7143  157.0260 C.ar    1  UNL1        0.0989
     32 N         139.1098  145.6256  155.8622 N.ar    1  UNL1       -0.2399
     33 C         138.2250  144.4248  155.7034 C.ar    1  UNL1        0.1528
     34 C         138.2824  143.3127  156.7084 C.ar    1  UNL1        0.0276
     35 C         137.2829  144.3361  154.5396 C.3     1  UNL1        0.4348
     36 F         136.3406  144.2473  153.3758 F       1  UNL1       -0.1644
     37 F         137.1350  145.8287  154.5456 F       1  UNL1       -0.1644
     38 F         137.4308  142.8434  154.5337 F       1  UNL1       -0.1644
@<TRIPOS>BOND
     1     1     2    1
     2     2     3   ar
     3     3     4   ar
     4     4     5   ar
     5     5    25    1
     6    25    26   am
     7    26    27    2
     8    26    29    1
     9    29    30   ar
    10    30    31   ar
    11    31    32   ar
    12    32    33   ar
    13    33    35    1
    14    35    36    1
    15    35    37    1
    16    35    38    1
    17    33    34   ar
    18     5     6   ar
    19     6     7   ar
    20     7     8    1
    21     8     9   ar
    22     9    10   ar
    23    10    20    1
    24    20    21    1
    25    21    22    1
    26    22    23    1
    27    10    11   ar
    28    11    12   ar
    29    12    14    1
    30    14    15    1
    31    15    16    1
    32    16    17    1
    33    17    18    1
    34    18    19    1
    35    12    13   ar
    36     7     2   ar
    37    13     8   ar
    38    34    29   ar
    39    19    14    1
    40    25    28    1
    41    23    24    1
@<TRIPOS>MOLECULE
*****
 38 41 0 0 0
SMALL
GASTEIGER

@<TRIPOS>ATOM
      1 C         138.1381  142.0291  157.8828 C.3     1  UNL1        0.0310
      2 C         138.7038  140.6859  157.5283 C.ar    1  UNL1       -0.0218
      3 C         138.4868  140.1190  156.1566 C.ar    1  UNL1       -0.0030
      4 C         139.0525  138.7757  155.8022 C.ar    1  UNL1        0.0144
      5 C         139.8353  137.9994  156.8193 C.ar    1  UNL1        0.0505
      6 C         140.0522  138.5664  158.1909 C.ar    1  UNL1        0.0144
      7 C         139.4865  139.9096  158.5454 C.ar    1  UNL1       -0.0025
      8 C         139.7035  140.4765  159.9172 C.ar    1  UNL1        0.0072
      9 C         138.5307  140.7360  160.8156 C.ar    1  UNL1        0.0578
     10 C         138.7477  141.3029  162.1873 C.ar    1  UNL1        0.2261
     11 N         140.1375  141.6103  162.6606 N.ar    1  UNL1       -0.1967
     12 C         141.3103  141.3509  161.7621 C.ar    1  UNL1        0.1349
     13 C         141.0933  140.7840  160.3904 C.ar    1  UNL1        0.0345
     14 N         142.7001  141.6583  162.2353 N.pl3   1  UNL1       -0.2880
     15 C         143.1506  143.0833  162.3637 C.3     1  UNL1        0.1242
     16 C         144.5404  143.3908  162.8369 C.3     1  UNL1        0.1636
     17 O         145.4797  142.2733  163.1818 O.3     1  UNL1       -0.3501
     18 C         145.0292  140.8483  163.0534 C.3     1  UNL1        0.1636
     19 C         143.6394  140.5408  162.5802 C.3     1  UNL1        0.1242
     20 O         137.5749  141.5623  163.0857 O.3     1  UNL1       -0.4575
     21 C         137.6937  142.5510  164.2075 C.3     1  UNL1        0.2387
     22 C         137.8335  144.0138  163.9063 C.3     1  UNL1        0.1848
     23 O         137.4403  144.5430  162.5590 O.3     1  UNL1       -0.3784
     24 H         138.0344  144.1807  161.8832 H       1  UNL1        0.2106
     25 N         140.4010  136.6562  156.4648 N.am    1  UNL1       -0.2804
     26 C         141.8826  136.4847  156.3055 C.2     1  UNL1        0.2496
     27 O         142.7985  137.6565  156.5006 O.2     1  UNL1       -0.2698
     28 H         139.7999  135.8871  156.3368 H       1  UNL1        0.1552
     29 C         142.4483  135.1415  155.9510 C.ar    1  UNL1        0.0567
     30 C         142.0343  134.4657  154.6774 C.ar    1  UNL1        0.0252
     31 C         142.6000  133.1225  154.3229 C.ar    1  UNL1        0.0989
     32 N         143.5798  132.4550  155.2420 N.ar    1  UNL1       -0.2399
     33 C         143.9937  133.1308  156.5155 C.ar    1  UNL1        0.1528
     34 C         143.4280  134.4740  156.8700 C.ar    1  UNL1        0.0276
     35 C         144.9734  132.4633  157.4345 C.3     1  UNL1        0.4348
     36 F         145.9532  131.7958  158.3536 F       1  UNL1       -0.1644
     37 F         144.5889  133.4105  158.5323 F       1  UNL1       -0.1644
     38 F         145.3579  131.5162  156.3368 F       1  UNL1       -0.1644
@<TRIPOS>BOND
     1     1     2    1
     2     2     3   ar
     3     3     4   ar
     4     4     5   ar
     5     5    25    1
     6    25    26   am
     7    26    27    2
     8    26    29    1
     9    29    30   ar
    10    30    31   ar
    11    31    32   ar
    12    32    33   ar
    13    33    35    1
    14    35    36    1
    15    35    37    1
    16    35    38    1
    17    33    34   ar
    18     5     6   ar
    19     6     7   ar
    20     7     8    1
    21     8     9   ar
    22     9    10   ar
    23    10    20    1
    24    20    21    1
    25    21    22    1
    26    22    23    1
    27    10    11   ar
    28    11    12   ar
    29    12    14    1
    30    14    15    1
    31    15    16    1
    32    16    17    1
    33    17    18    1
    34    18    19    1
    35    12    13   ar
    36     7     2   ar
    37    13     8   ar
    38    34    29   ar
    39    19    14    1
    40    25    28    1
    41    23    24    1
@<TRIPOS>MOLECULE
*****
 38 41 0 0 0
SMALL
GASTEIGER

@<TRIPOS>ATOM
      1 C         139.7401  137.8598  164.5468 C.3     1  UNL1        0.0310
      2 C         139.2441  138.6704  163.3862 C.ar    1  UNL1       -0.0218
      3 C         138.3622  138.0370  162.3513 C.ar    1  UNL1       -0.0030
      4 C         137.8662  138.8476  161.1908 C.ar    1  UNL1        0.0144
      5 C         138.2521  140.2916  161.0651 C.ar    1  UNL1        0.0505
      6 C         139.1340  140.9250  162.1000 C.ar    1  UNL1        0.0144
      7 C         139.6300  140.1144  163.2605 C.ar    1  UNL1       -0.0025
      8 C         140.5119  140.7479  164.2955 C.ar    1  UNL1        0.0072
      9 C         141.8711  141.2548  163.9139 C.ar    1  UNL1        0.0578
     10 C         142.7531  141.8883  164.9487 C.ar    1  UNL1        0.2261
     11 N         142.2758  142.0148  166.3652 N.ar    1  UNL1       -0.1967
     12 C         140.9166  141.5079  166.7468 C.ar    1  UNL1        0.1349
     13 C         140.0347  140.8744  165.7118 C.ar    1  UNL1        0.0345
     14 N         140.4393  141.6344  168.1631 N.pl3   1  UNL1       -0.2880
     15 C         140.5085  142.9596  168.8623 C.3     1  UNL1        0.1242
     16 C         140.0312  143.0862  170.2787 C.3     1  UNL1        0.1636
     17 O         139.4847  141.8874  170.9959 O.3     1  UNL1       -0.3501
     18 C         139.4156  140.5621  170.2967 C.3     1  UNL1        0.1636
     19 C         139.8929  140.4356  168.8803 C.3     1  UNL1        0.1242
     20 O         144.1123  142.3952  164.5672 O.3     1  UNL1       -0.4575
     21 C         144.3259  143.0324  163.2262 C.3     1  UNL1        0.2387
     22 C         144.0293  144.4899  163.0325 C.3     1  UNL1        0.1848
     23 O         143.0413  144.9222  161.9899 O.3     1  UNL1       -0.3784
     24 H         143.3864  144.7083  161.1089 H       1  UNL1        0.2106
     25 N         137.7561  141.1023  159.9045 N.am    1  UNL1       -0.2804
     26 C         138.0462  140.6586  158.5014 C.2     1  UNL1        0.2496
     27 O         138.8323  139.4043  158.2587 O.2     1  UNL1       -0.2698
     28 H         137.2402  141.9255  160.0638 H       1  UNL1        0.1552
     29 C         137.5502  141.4693  157.3408 C.ar    1  UNL1        0.0567
     30 C         136.3526  141.0104  156.5628 C.ar    1  UNL1        0.0252
     31 C         135.8566  141.8211  155.4022 C.ar    1  UNL1        0.0989
     32 N         136.5583  143.0905  155.0197 N.ar    1  UNL1       -0.2399
     33 C         137.7558  143.5493  155.7977 C.ar    1  UNL1        0.1528
     34 C         138.2518  142.7386  156.9582 C.ar    1  UNL1        0.0276
     35 C         138.4574  144.8186  155.4151 C.3     1  UNL1        0.4348
     36 F         139.1590  146.0881  155.0325 F       1  UNL1       -0.1644
     37 F         139.7566  144.2466  155.8997 F       1  UNL1       -0.1644
     38 F         137.1583  145.3906  154.9304 F       1  UNL1       -0.1644
@<TRIPOS>BOND
     1     1     2    1
     2     2     3   ar
     3     3     4   ar
     4     4     5   ar
     5     5    25    1
     6    25    26   am
     7    26    27    2
     8    26    29    1
     9    29    30   ar
    10    30    31   ar
    11    31    32   ar
    12    32    33   ar
    13    33    35    1
    14    35    36    1
    15    35    37    1
    16    35    38    1
    17    33    34   ar
    18     5     6   ar
    19     6     7   ar
    20     7     8    1
    21     8     9   ar
    22     9    10   ar
    23    10    20    1
    24    20    21    1
    25    21    22    1
    26    22    23    1
    27    10    11   ar
    28    11    12   ar
    29    12    14    1
    30    14    15    1
    31    15    16    1
    32    16    17    1
    33    17    18    1
    34    18    19    1
    35    12    13   ar
    36     7     2   ar
    37    13     8   ar
    38    34    29   ar
    39    19    14    1
    40    25    28    1
    41    23    24    1
