@<TRIPOS>MOLECULE
*****
 30 32 0 0 0
SMALL
GASTEIGER

@<TRIPOS>ATOM
      1 N         144.1894  140.9268  162.8369 N.3     1  UNL1       -0.2700
      2 C         143.8540  139.5870  163.4223 C.3     1  UNL1        0.0897
      3 C         142.7996  138.7324  162.7838 C.3     1  UNL1        0.0897
      4 N         142.0805  139.2175  161.5599 N.3     1  UNL1       -0.2700
      5 C         142.4159  140.5572  160.9747 C.3     1  UNL1        0.0897
      6 C         143.4704  141.4119  161.6131 C.3     1  UNL1        0.0897
      7 C         145.2439  141.7815  163.4754 C.3     1  UNL1        0.0769
      8 C         144.8510  142.8672  164.4329 C.3     1  UNL1        0.0437
      9 C         140.5869  144.2967  164.5872 C.ar    1  UNL1        0.0756
     10 C         140.9897  143.0573  165.3298 C.ar    1  UNL1        0.0061
     11 C         142.4111  142.5808  165.2784 C.ar    1  UNL1       -0.0040
     12 C         143.4296  143.3437  164.4844 C.ar    1  UNL1       -0.0208
     13 C         143.0268  144.5831  163.7418 C.ar    1  UNL1       -0.0040
     14 C         141.6054  145.0596  163.7932 C.ar    1  UNL1        0.0061
     15 C         139.1655  144.7732  164.6387 C.2     1  UNL1        0.3412
     16 O         138.5765  145.2369  165.9379 O.2     1  UNL1       -0.2449
     17 O         138.3332  144.7860  163.3909 O.3     1  UNL1       -0.4454
     18 C         138.9462  143.0700  161.5390 C.3     1  UNL1        0.0513
     19 C         138.0530  143.5047  162.6630 C.3     1  UNL1        0.2089
     20 C         141.0261  138.3628  160.9215 C.3     1  UNL1        0.0769
     21 C         139.5864  138.5354  161.3059 C.3     1  UNL1        0.0437
     22 C         139.1968  138.5780  162.7538 C.ar    1  UNL1       -0.0204
     23 C         139.3887  137.3672  163.6181 C.ar    1  UNL1        0.0021
     24 C         138.9990  137.4098  165.0659 C.ar    1  UNL1        0.0749
     25 C         138.4174  138.6632  165.6495 C.ar    1  UNL1        0.2900
     26 C         138.2254  139.8741  164.7853 C.ar    1  UNL1        0.0749
     27 C         138.6151  139.8315  163.3374 C.ar    1  UNL1        0.0021
     28 N         138.0277  138.7058  167.0974 N.pl3   1  UNL1        0.0809
     29 O         136.8155  137.9592  167.5701 O.2     1  UNL1        0.0415
     30 O         138.8501  139.4948  168.0726 O.co2   1  UNL1       -0.5760
@<TRIPOS>UNITY_ATOM_ATTR
28 1
charge 1
30 1
charge -1
@<TRIPOS>BOND
     1    18    19    1
     2    19    17    1
     3    17    15    1
     4    15    16    2
     5    15     9    1
     6     9    10   ar
     7    10    11   ar
     8    11    12   ar
     9    12     8    1
    10     8     7    1
    11     7     1    1
    12     1     2    1
    13     2     3    1
    14     3     4    1
    15     4    20    1
    16    20    21    1
    17    21    22    1
    18    22    23   ar
    19    23    24   ar
    20    24    25   ar
    21    25    28    1
    22    28    29    2
    23    28    30    1
    24    25    26   ar
    25    26    27   ar
    26     4     5    1
    27     5     6    1
    28    12    13   ar
    29    13    14   ar
    30    14     9   ar
    31     6     1    1
    32    27    22   ar
@<TRIPOS>MOLECULE
*****
 30 32 0 0 0
SMALL
GASTEIGER

@<TRIPOS>ATOM
      1 N         141.9935  139.2502  161.7748 N.3     1  UNL1       -0.2700
      2 C         142.5876  138.7876  163.0722 C.3     1  UNL1        0.0897
      3 C         143.6087  139.6336  163.7734 C.3     1  UNL1        0.0897
      4 N         144.0357  140.9422  163.1772 N.3     1  UNL1       -0.2700
      5 C         143.4416  141.4047  161.8798 C.3     1  UNL1        0.0897
      6 C         142.4205  140.5587  161.1786 C.3     1  UNL1        0.0897
      7 C         140.9724  138.4042  161.0736 C.3     1  UNL1        0.0769
      8 C         139.5229  138.5184  161.4421 C.3     1  UNL1        0.0437
      9 C         138.3033  138.6177  165.7725 C.ar    1  UNL1        0.0756
     10 C         138.8913  137.3680  165.1874 C.ar    1  UNL1        0.0061
     11 C         139.2978  137.3349  163.7439 C.ar    1  UNL1       -0.0040
     12 C         139.1164  138.5515  162.8855 C.ar    1  UNL1       -0.0208
     13 C         138.5284  139.8013  163.4707 C.ar    1  UNL1       -0.0040
     14 C         138.1219  139.8344  164.9141 C.ar    1  UNL1        0.0061
     15 C         137.8968  138.6508  167.2160 C.2     1  UNL1        0.3412
     16 O         136.7318  137.8311  167.6861 O.2     1  UNL1       -0.2449
     17 O         138.6551  139.5036  168.1894 O.3     1  UNL1       -0.4454
     18 C         140.8262  140.7673  168.8525 C.3     1  UNL1        0.0513
     19 C         140.0263  140.0018  167.8404 C.3     1  UNL1        0.2089
     20 C         145.0567  141.7882  163.8784 C.3     1  UNL1        0.0769
     21 C         144.6171  142.9374  164.7363 C.3     1  UNL1        0.0437
     22 C         143.1779  143.3601  164.7440 C.ar    1  UNL1       -0.0204
     23 C         142.7374  144.5365  163.9242 C.ar    1  UNL1        0.0021
     24 C         141.2982  144.9592  163.9318 C.ar    1  UNL1        0.0749
     25 C         140.2995  144.2055  164.7592 C.ar    1  UNL1        0.2900
     26 C         140.7401  143.0291  165.5790 C.ar    1  UNL1        0.0749
     27 C         142.1793  142.6064  165.5714 C.ar    1  UNL1        0.0021
     28 N         138.8604  144.6282  164.7668 N.pl3   1  UNL1        0.0809
     29 O         138.3164  145.4170  165.9210 O.2     1  UNL1        0.0415
     30 O         137.9651  144.2622  163.6203 O.co2   1  UNL1       -0.5760
@<TRIPOS>UNITY_ATOM_ATTR
28 1
charge 1
30 1
charge -1
@<TRIPOS>BOND
     1    18    19    1
     2    19    17    1
     3    17    15    1
     4    15    16    2
     5    15     9    1
     6     9    10   ar
     7    10    11   ar
     8    11    12   ar
     9    12     8    1
    10     8     7    1
    11     7     1    1
    12     1     2    1
    13     2     3    1
    14     3     4    1
    15     4    20    1
    16    20    21    1
    17    21    22    1
    18    22    23   ar
    19    23    24   ar
    20    24    25   ar
    21    25    28    1
    22    28    29    2
    23    28    30    1
    24    25    26   ar
    25    26    27   ar
    26     4     5    1
    27     5     6    1
    28    12    13   ar
    29    13    14   ar
    30    14     9   ar
    31     6     1    1
    32    27    22   ar
@<TRIPOS>MOLECULE
*****
 30 32 0 0 0
SMALL
GASTEIGER

@<TRIPOS>ATOM
      1 N         138.6533  140.1008  161.4742 N.3     1  UNL1       -0.2700
      2 C         139.2043  141.3275  160.8096 C.3     1  UNL1        0.0897
      3 C         138.9201  142.6836  161.3842 C.3     1  UNL1        0.0897
      4 N         138.0849  142.8130  162.6235 N.3     1  UNL1       -0.2700
      5 C         137.5340  141.5863  163.2881 C.3     1  UNL1        0.0897
      6 C         137.8182  140.2302  162.7134 C.3     1  UNL1        0.0897
      7 C         138.9375  138.7447  160.8995 C.3     1  UNL1        0.0769
      8 C         140.2774  138.1054  161.1133 C.3     1  UNL1        0.0437
      9 C         142.4104  138.6107  165.0433 C.ar    1  UNL1        0.0756
     10 C         141.4558  137.4700  164.8493 C.ar    1  UNL1        0.0061
     11 C         140.7449  137.3016  163.5393 C.ar    1  UNL1       -0.0040
     12 C         140.9884  138.2738  162.4233 C.ar    1  UNL1       -0.0208
     13 C         141.9430  139.4145  162.6174 C.ar    1  UNL1       -0.0040
     14 C         142.6540  139.5829  163.9274 C.ar    1  UNL1        0.0061
     15 C         143.1214  138.7791  166.3533 C.2     1  UNL1        0.3412
     16 O         144.1870  137.8046  166.7591 O.2     1  UNL1       -0.2449
     17 O         142.7667  139.9221  167.2577 O.3     1  UNL1       -0.4454
     18 C         140.1867  140.1445  167.4686 C.3     1  UNL1        0.0513
     19 C         141.5214  139.8602  168.0915 C.3     1  UNL1        0.2089
     20 C         137.8007  144.1691  163.1982 C.3     1  UNL1        0.0769
     21 C         138.5628  144.6503  164.3973 C.3     1  UNL1        0.0437
     22 C         140.0261  144.3472  164.5271 C.ar    1  UNL1       -0.0204
     23 C         140.4836  143.2199  165.4044 C.ar    1  UNL1        0.0021
     24 C         141.9469  142.9169  165.5342 C.ar    1  UNL1        0.0749
     25 C         142.9527  143.7412  164.7867 C.ar    1  UNL1        0.2900
     26 C         142.4952  144.8686  163.9093 C.ar    1  UNL1        0.0749
     27 C         141.0319  145.1716  163.7795 C.ar    1  UNL1        0.0021
     28 N         144.4161  143.4381  164.9165 N.pl3   1  UNL1        0.0809
     29 O         145.2233  144.0881  166.0010 O.2     1  UNL1        0.0415
     30 O         145.0722  142.4851  163.9619 O.co2   1  UNL1       -0.5760
@<TRIPOS>UNITY_ATOM_ATTR
28 1
charge 1
30 1
charge -1
@<TRIPOS>BOND
     1    18    19    1
     2    19    17    1
     3    17    15    1
     4    15    16    2
     5    15     9    1
     6     9    10   ar
     7    10    11   ar
     8    11    12   ar
     9    12     8    1
    10     8     7    1
    11     7     1    1
    12     1     2    1
    13     2     3    1
    14     3     4    1
    15     4    20    1
    16    20    21    1
    17    21    22    1
    18    22    23   ar
    19    23    24   ar
    20    24    25   ar
    21    25    28    1
    22    28    29    2
    23    28    30    1
    24    25    26   ar
    25    26    27   ar
    26     4     5    1
    27     5     6    1
    28    12    13   ar
    29    13    14   ar
    30    14     9   ar
    31     6     1    1
    32    27    22   ar
@<TRIPOS>MOLECULE
*****
 30 32 0 0 0
SMALL
GASTEIGER

@<TRIPOS>ATOM
      1 N         138.5520  142.8704  162.2845 N.3     1  UNL1       -0.2700
      2 C         137.4953  142.1673  163.0840 C.3     1  UNL1        0.0897
      3 C         137.4468  140.6683  163.1089 C.3     1  UNL1        0.0897
      4 N         138.4550  139.8723  162.3343 N.3     1  UNL1       -0.2700
      5 C         139.5117  140.5754  161.5349 C.3     1  UNL1        0.0897
      6 C         139.5602  142.0744  161.5100 C.3     1  UNL1        0.0897
      7 C         138.6005  144.3694  162.2596 C.3     1  UNL1        0.0769
      8 C         139.2951  145.1157  163.3598 C.3     1  UNL1        0.0437
      9 C         143.4021  143.8493  164.6937 C.ar    1  UNL1        0.0756
     10 C         142.1873  143.1987  165.2861 C.ar    1  UNL1        0.0061
     11 C         140.8183  143.6208  164.8415 C.ar    1  UNL1       -0.0040
     12 C         140.6641  144.6935  163.8045 C.ar    1  UNL1       -0.0208
     13 C         141.8789  145.3441  163.2120 C.ar    1  UNL1       -0.0040
     14 C         143.2479  144.9220  163.6566 C.ar    1  UNL1        0.0061
     15 C         144.7711  143.4271  165.1383 C.2     1  UNL1        0.3412
     16 O         145.4141  144.0915  166.3194 O.2     1  UNL1       -0.2449
     17 O         145.4970  142.3406  164.4018 O.3     1  UNL1       -0.4454
     18 C         144.4266  139.9780  164.5514 C.3     1  UNL1        0.0513
     19 C         144.7268  141.2209  163.7670 C.3     1  UNL1        0.2089
     20 C         138.4065  138.3733  162.3592 C.3     1  UNL1        0.0769
     21 C         138.9920  137.6232  163.5188 C.3     1  UNL1        0.0437
     22 C         139.2560  138.3319  164.8142 C.ar    1  UNL1       -0.0204
     23 C         138.1926  138.3844  165.8707 C.ar    1  UNL1        0.0021
     24 C         138.4566  139.0931  167.1661 C.ar    1  UNL1        0.0749
     25 C         139.7841  139.7493  167.4049 C.ar    1  UNL1        0.2900
     26 C         140.8477  139.6969  166.3484 C.ar    1  UNL1        0.0749
     27 C         140.5836  138.9881  165.0530 C.ar    1  UNL1        0.0021
     28 N         140.0482  140.4580  168.7003 N.pl3   1  UNL1        0.0809
     29 O         140.1912  139.6718  169.9698 O.2     1  UNL1        0.0415
     30 O         140.1692  141.9529  168.7262 O.co2   1  UNL1       -0.5760
@<TRIPOS>UNITY_ATOM_ATTR
28 1
charge 1
30 1
charge -1
@<TRIPOS>BOND
     1    18    19    1
     2    19    17    1
     3    17    15    1
     4    15    16    2
     5    15     9    1
     6     9    10   ar
     7    10    11   ar
     8    11    12   ar
     9    12     8    1
    10     8     7    1
    11     7     1    1
    12     1     2    1
    13     2     3    1
    14     3     4    1
    15     4    20    1
    16    20    21    1
    17    21    22    1
    18    22    23   ar
    19    23    24   ar
    20    24    25   ar
    21    25    28    1
    22    28    29    2
    23    28    30    1
    24    25    26   ar
    25    26    27   ar
    26     4     5    1
    27     5     6    1
    28    12    13   ar
    29    13    14   ar
    30    14     9   ar
    31     6     1    1
    32    27    22   ar
@<TRIPOS>MOLECULE
*****
 30 32 0 0 0
SMALL
GASTEIGER

@<TRIPOS>ATOM
      1 N         139.3074  138.2932  162.5150 N.3     1  UNL1       -0.2700
      2 C         140.7392  138.5142  162.1260 C.3     1  UNL1        0.0897
      3 C         141.8006  138.5883  163.1833 C.3     1  UNL1        0.0897
      4 N         141.4303  138.4413  164.6294 N.3     1  UNL1       -0.2700
      5 C         139.9986  138.2203  165.0183 C.3     1  UNL1        0.0897
      6 C         138.9371  138.1462  163.9611 C.3     1  UNL1        0.0897
      7 C         138.2459  138.2192  161.4577 C.3     1  UNL1        0.0769
      8 C         137.3890  139.4162  161.1701 C.3     1  UNL1        0.0437
      9 C         138.8377  143.5346  162.2610 C.ar    1  UNL1        0.0756
     10 C         137.9013  142.8022  163.1757 C.ar    1  UNL1        0.0061
     11 C         137.4185  141.4294  162.8121 C.ar    1  UNL1       -0.0040
     12 C         137.8719  140.7890  161.5337 C.ar    1  UNL1       -0.0208
     13 C         138.8082  141.5215  160.6190 C.ar    1  UNL1       -0.0040
     14 C         139.2911  142.8943  160.9827 C.ar    1  UNL1        0.0061
     15 C         139.3205  144.9074  162.6247 C.2     1  UNL1        0.3412
     16 O         138.9499  146.0835  161.7707 O.2     1  UNL1       -0.2449
     17 O         140.1741  145.1041  163.8423 O.3     1  UNL1       -0.4454
     18 C         142.3046  143.7715  164.5022 C.3     1  UNL1        0.0513
     19 C         141.6581  144.9025  163.7585 C.3     1  UNL1        0.2089
     20 C         142.4918  138.5154  165.6867 C.3     1  UNL1        0.0769
     21 C         143.0074  139.8492  166.1397 C.3     1  UNL1        0.0437
     22 C         142.3699  140.5425  167.3072 C.ar    1  UNL1       -0.0204
     23 C         141.1567  139.9497  167.9604 C.ar    1  UNL1        0.0021
     24 C         140.5193  140.6429  169.1279 C.ar    1  UNL1        0.0749
     25 C         141.0950  141.9290  169.6422 C.ar    1  UNL1        0.2900
     26 C         142.3082  142.5219  168.9890 C.ar    1  UNL1        0.0749
     27 C         142.9457  141.8286  167.8215 C.ar    1  UNL1        0.0021
     28 N         140.4575  142.6223  170.8097 N.pl3   1  UNL1        0.0809
     29 O         140.6330  142.0738  172.1948 O.2     1  UNL1        0.0415
     30 O         139.6446  143.8639  170.5921 O.co2   1  UNL1       -0.5760
@<TRIPOS>UNITY_ATOM_ATTR
28 1
charge 1
30 1
charge -1
@<TRIPOS>BOND
     1    18    19    1
     2    19    17    1
     3    17    15    1
     4    15    16    2
     5    15     9    1
     6     9    10   ar
     7    10    11   ar
     8    11    12   ar
     9    12     8    1
    10     8     7    1
    11     7     1    1
    12     1     2    1
    13     2     3    1
    14     3     4    1
    15     4    20    1
    16    20    21    1
    17    21    22    1
    18    22    23   ar
    19    23    24   ar
    20    24    25   ar
    21    25    28    1
    22    28    29    2
    23    28    30    1
    24    25    26   ar
    25    26    27   ar
    26     4     5    1
    27     5     6    1
    28    12    13   ar
    29    13    14   ar
    30    14     9   ar
    31     6     1    1
    32    27    22   ar
@<TRIPOS>MOLECULE
*****
 30 32 0 0 0
SMALL
GASTEIGER

@<TRIPOS>ATOM
      1 N         140.8021  144.3517  162.8026 N.3     1  UNL1       -0.2700
      2 C         142.2274  144.3922  163.2683 C.3     1  UNL1        0.0897
      3 C         143.2626  143.5455  162.5890 C.3     1  UNL1        0.0897
      4 N         142.8725  142.6584  161.4440 N.3     1  UNL1       -0.2700
      5 C         141.4472  142.6180  160.9784 C.3     1  UNL1        0.0897
      6 C         140.4120  143.4646  161.6577 C.3     1  UNL1        0.0897
      7 C         139.7668  145.1984  163.4820 C.3     1  UNL1        0.0769
      8 C         139.0345  144.6705  164.6799 C.3     1  UNL1        0.0437
      9 C         138.6831  140.2311  165.3263 C.ar    1  UNL1        0.0756
     10 C         137.7358  140.9311  164.3975 C.ar    1  UNL1        0.0061
     11 C         137.8530  142.4109  164.1820 C.ar    1  UNL1       -0.0040
     12 C         138.9174  143.1907  164.8953 C.ar    1  UNL1       -0.0208
     13 C         139.8646  142.4908  165.8241 C.ar    1  UNL1       -0.0040
     14 C         139.7475  141.0109  166.0396 C.ar    1  UNL1        0.0061
     15 C         138.5660  138.7513  165.5417 C.2     1  UNL1        0.3412
     16 O         137.7935  138.2229  166.7139 O.2     1  UNL1       -0.2449
     17 O         139.2214  137.7999  164.5851 O.3     1  UNL1       -0.4454
     18 C         139.4948  137.9372  162.0050 C.3     1  UNL1        0.0513
     19 C         138.6578  137.6146  163.2073 C.3     1  UNL1        0.2089
     20 C         143.9077  141.8117  160.7647 C.3     1  UNL1        0.0769
     21 C         143.9681  140.3379  161.0374 C.3     1  UNL1        0.0437
     22 C         143.9025  139.8331  162.4484 C.ar    1  UNL1       -0.0204
     23 C         144.9862  140.1875  163.4229 C.ar    1  UNL1        0.0021
     24 C         144.9206  139.6826  164.8339 C.ar    1  UNL1        0.0749
     25 C         143.7713  138.8233  165.2703 C.ar    1  UNL1        0.2900
     26 C         142.6874  138.4688  164.2957 C.ar    1  UNL1        0.0749
     27 C         142.7530  138.9737  162.8848 C.ar    1  UNL1        0.0021
     28 N         143.7057  138.3184  166.6813 N.pl3   1  UNL1        0.0809
     29 O         144.5277  137.1330  167.0926 O.2     1  UNL1        0.0415
     30 O         142.8181  138.9989  167.6808 O.co2   1  UNL1       -0.5760
@<TRIPOS>UNITY_ATOM_ATTR
28 1
charge 1
30 1
charge -1
@<TRIPOS>BOND
     1    18    19    1
     2    19    17    1
     3    17    15    1
     4    15    16    2
     5    15     9    1
     6     9    10   ar
     7    10    11   ar
     8    11    12   ar
     9    12     8    1
    10     8     7    1
    11     7     1    1
    12     1     2    1
    13     2     3    1
    14     3     4    1
    15     4    20    1
    16    20    21    1
    17    21    22    1
    18    22    23   ar
    19    23    24   ar
    20    24    25   ar
    21    25    28    1
    22    28    29    2
    23    28    30    1
    24    25    26   ar
    25    26    27   ar
    26     4     5    1
    27     5     6    1
    28    12    13   ar
    29    13    14   ar
    30    14     9   ar
    31     6     1    1
    32    27    22   ar
@<TRIPOS>MOLECULE
*****
 30 32 0 0 0
SMALL
GASTEIGER

@<TRIPOS>ATOM
      1 N         140.3382  144.5246  162.4414 N.3     1  UNL1       -0.2700
      2 C         140.7806  143.2996  161.6970 C.3     1  UNL1        0.0897
      3 C         142.2186  142.8749  161.7392 C.3     1  UNL1        0.0897
      4 N         143.2142  143.6751  162.5258 N.3     1  UNL1       -0.2700
      5 C         142.7718  144.8999  163.2701 C.3     1  UNL1        0.0897
      6 C         141.3338  145.3247  163.2279 C.3     1  UNL1        0.0897
      7 C         138.9002  144.9493  162.3991 C.3     1  UNL1        0.0769
      8 C         137.9204  144.3784  163.3810 C.3     1  UNL1        0.0437
      9 C         138.5410  140.2377  165.0301 C.ar    1  UNL1        0.0756
     10 C         139.2191  141.4107  165.6736 C.ar    1  UNL1        0.0061
     11 C         139.0122  142.7910  165.1239 C.ar    1  UNL1       -0.0040
     12 C         138.1273  142.9982  163.9307 C.ar    1  UNL1       -0.0208
     13 C         137.4492  141.8252  163.2871 C.ar    1  UNL1       -0.0040
     14 C         137.6561  140.4449  163.8368 C.ar    1  UNL1        0.0061
     15 C         138.7479  138.8575  165.5798 C.2     1  UNL1        0.3412
     16 O         137.8186  138.3205  166.6277 O.2     1  UNL1       -0.2449
     17 O         139.8840  138.0143  165.0816 O.3     1  UNL1       -0.4454
     18 C         141.6699  137.6441  163.2314 C.3     1  UNL1        0.0513
     19 C         140.2967  138.0871  163.6414 C.3     1  UNL1        0.2089
     20 C         144.6522  143.2504  162.5680 C.3     1  UNL1        0.0769
     21 C         145.0818  142.1480  163.4902 C.3     1  UNL1        0.0437
     22 C         144.2634  141.8246  164.7049 C.ar    1  UNL1       -0.0204
     23 C         143.6046  140.4829  164.8300 C.ar    1  UNL1        0.0021
     24 C         142.7862  140.1595  166.0447 C.ar    1  UNL1        0.0749
     25 C         142.6266  141.1778  167.1344 C.ar    1  UNL1        0.2900
     26 C         143.2854  142.5196  167.0094 C.ar    1  UNL1        0.0749
     27 C         144.1038  142.8430  165.7946 C.ar    1  UNL1        0.0021
     28 N         141.8081  140.8544  168.3491 N.pl3   1  UNL1        0.0809
     29 O         140.7807  139.7629  168.2924 O.2     1  UNL1        0.0415
     30 O         142.0171  141.6224  169.6205 O.co2   1  UNL1       -0.5760
@<TRIPOS>UNITY_ATOM_ATTR
28 1
charge 1
30 1
charge -1
@<TRIPOS>BOND
     1    18    19    1
     2    19    17    1
     3    17    15    1
     4    15    16    2
     5    15     9    1
     6     9    10   ar
     7    10    11   ar
     8    11    12   ar
     9    12     8    1
    10     8     7    1
    11     7     1    1
    12     1     2    1
    13     2     3    1
    14     3     4    1
    15     4    20    1
    16    20    21    1
    17    21    22    1
    18    22    23   ar
    19    23    24   ar
    20    24    25   ar
    21    25    28    1
    22    28    29    2
    23    28    30    1
    24    25    26   ar
    25    26    27   ar
    26     4     5    1
    27     5     6    1
    28    12    13   ar
    29    13    14   ar
    30    14     9   ar
    31     6     1    1
    32    27    22   ar
@<TRIPOS>MOLECULE
*****
 30 32 0 0 0
SMALL
GASTEIGER

@<TRIPOS>ATOM
      1 N         139.0398  142.9627  161.8451 N.3     1  UNL1       -0.2700
      2 C         137.8409  142.4930  162.6147 C.3     1  UNL1        0.0897
      3 C         137.4114  141.0582  162.5318 C.3     1  UNL1        0.0897
      4 N         138.1807  140.0931  161.6792 N.3     1  UNL1       -0.2700
      5 C         139.3796  140.5628  160.9097 C.3     1  UNL1        0.0897
      6 C         139.8091  141.9976  160.9927 C.3     1  UNL1        0.0897
      7 C         139.4694  144.3975  161.9281 C.3     1  UNL1        0.0769
      8 C         139.7260  145.0274  163.2649 C.3     1  UNL1        0.0437
      9 C         141.7785  142.6736  166.5048 C.ar    1  UNL1        0.0756
     10 C         142.5505  143.1211  165.2991 C.ar    1  UNL1        0.0061
     11 C         141.8663  143.9058  164.2192 C.ar    1  UNL1       -0.0040
     12 C         140.4101  144.2428  164.3449 C.ar    1  UNL1       -0.0208
     13 C         139.6381  143.7953  165.5505 C.ar    1  UNL1       -0.0040
     14 C         140.3223  143.0107  166.6305 C.ar    1  UNL1        0.0061
     15 C         142.4626  141.8890  167.5847 C.2     1  UNL1        0.3412
     16 O         143.5686  142.5156  168.3811 O.2     1  UNL1       -0.2449
     17 O         142.0409  140.4778  167.8683 O.3     1  UNL1       -0.4454
     18 C         139.6072  140.0153  168.6515 C.3     1  UNL1        0.0513
     19 C         141.0622  140.1943  168.9692 C.3     1  UNL1        0.2089
     20 C         137.7512  138.6583  161.5963 C.3     1  UNL1        0.0769
     21 C         138.3179  137.6494  162.5508 C.3     1  UNL1        0.0437
     22 C         139.6150  137.9259  163.2515 C.ar    1  UNL1       -0.0204
     23 C         139.6112  138.4857  164.6431 C.ar    1  UNL1        0.0021
     24 C         140.9083  138.7622  165.3439 C.ar    1  UNL1        0.0749
     25 C         142.2092  138.4789  164.6531 C.ar    1  UNL1        0.2900
     26 C         142.2131  137.9191  163.2614 C.ar    1  UNL1        0.0749
     27 C         140.9160  137.6426  162.5606 C.ar    1  UNL1        0.0021
     28 N         143.5063  138.7555  165.3539 N.pl3   1  UNL1        0.0809
     29 O         144.3886  139.8742  164.8847 O.2     1  UNL1        0.0415
     30 O         143.9211  137.9133  166.5238 O.co2   1  UNL1       -0.5760
@<TRIPOS>UNITY_ATOM_ATTR
28 1
charge 1
30 1
charge -1
@<TRIPOS>BOND
     1    18    19    1
     2    19    17    1
     3    17    15    1
     4    15    16    2
     5    15     9    1
     6     9    10   ar
     7    10    11   ar
     8    11    12   ar
     9    12     8    1
    10     8     7    1
    11     7     1    1
    12     1     2    1
    13     2     3    1
    14     3     4    1
    15     4    20    1
    16    20    21    1
    17    21    22    1
    18    22    23   ar
    19    23    24   ar
    20    24    25   ar
    21    25    28    1
    22    28    29    2
    23    28    30    1
    24    25    26   ar
    25    26    27   ar
    26     4     5    1
    27     5     6    1
    28    12    13   ar
    29    13    14   ar
    30    14     9   ar
    31     6     1    1
    32    27    22   ar
@<TRIPOS>MOLECULE
*****
 30 32 0 0 0
SMALL
GASTEIGER

@<TRIPOS>ATOM
      1 N         139.9750  138.0666  164.5462 N.3     1  UNL1       -0.2700
      2 C         139.8262  137.7651  163.0843 C.3     1  UNL1        0.0897
      3 C         141.0353  137.7388  162.1971 C.3     1  UNL1        0.0897
      4 N         142.3934  138.0139  162.7718 N.3     1  UNL1       -0.2700
      5 C         142.5421  138.3154  164.2336 C.3     1  UNL1        0.0897
      6 C         141.3330  138.3417  165.1208 C.3     1  UNL1        0.0897
      7 C         138.7658  138.0929  165.4334 C.3     1  UNL1        0.0769
      8 C         138.0971  139.3974  165.7513 C.3     1  UNL1        0.0437
      9 C         138.8680  143.0071  163.1772 C.ar    1  UNL1        0.0756
     10 C         139.6236  142.8256  164.4602 C.ar    1  UNL1        0.0061
     11 C         139.3667  141.6224  165.3182 C.ar    1  UNL1       -0.0040
     12 C         138.3540  140.6006  164.8933 C.ar    1  UNL1       -0.0208
     13 C         137.5984  140.7821  163.6104 C.ar    1  UNL1       -0.0040
     14 C         137.8553  141.9854  162.7523 C.ar    1  UNL1        0.0061
     15 C         139.1249  144.2103  162.3192 C.2     1  UNL1        0.3412
     16 O         139.3223  145.5553  162.9533 O.2     1  UNL1       -0.2449
     17 O         139.1845  144.0686  160.8271 O.3     1  UNL1       -0.4454
     18 C         140.1281  142.1152  159.3974 C.3     1  UNL1        0.0513
     19 C         140.3480  143.3723  160.1857 C.3     1  UNL1        0.2089
     20 C         143.6025  137.9876  161.8845 C.3     1  UNL1        0.0769
     21 C         144.1452  139.2662  161.3181 C.3     1  UNL1        0.0437
     22 C         144.1730  140.5073  162.1602 C.ar    1  UNL1       -0.0204
     23 C         143.1282  141.5665  161.9697 C.ar    1  UNL1        0.0021
     24 C         143.1561  142.8075  162.8117 C.ar    1  UNL1        0.0749
     25 C         144.2288  142.9893  163.8442 C.ar    1  UNL1        0.2900
     26 C         145.2737  141.9301  164.0348 C.ar    1  UNL1        0.0749
     27 C         145.2459  140.6891  163.1927 C.ar    1  UNL1        0.0021
     28 N         144.2567  144.2304  164.6863 N.pl3   1  UNL1        0.0809
     29 O         144.9934  144.2338  165.9930 O.2     1  UNL1        0.0415
     30 O         143.5479  145.4680  164.2217 O.co2   1  UNL1       -0.5760
@<TRIPOS>UNITY_ATOM_ATTR
28 1
charge 1
30 1
charge -1
@<TRIPOS>BOND
     1    18    19    1
     2    19    17    1
     3    17    15    1
     4    15    16    2
     5    15     9    1
     6     9    10   ar
     7    10    11   ar
     8    11    12   ar
     9    12     8    1
    10     8     7    1
    11     7     1    1
    12     1     2    1
    13     2     3    1
    14     3     4    1
    15     4    20    1
    16    20    21    1
    17    21    22    1
    18    22    23   ar
    19    23    24   ar
    20    24    25   ar
    21    25    28    1
    22    28    29    2
    23    28    30    1
    24    25    26   ar
    25    26    27   ar
    26     4     5    1
    27     5     6    1
    28    12    13   ar
    29    13    14   ar
    30    14     9   ar
    31     6     1    1
    32    27    22   ar
