@<TRIPOS>MOLECULE
*****
 33 36 0 0 0
SMALL
GASTEIGER

@<TRIPOS>ATOM
      1 C         141.2094  140.6341  168.2966 C.ar    1  UNL1        0.0685
      2 C         140.9239  140.4841  169.7616 C.ar    1  UNL1        0.0885
      3 C         139.5903  139.9705  170.2170 C.ar    1  UNL1        0.1263
      4 N         138.5420  139.6068  169.2075 N.ar    1  UNL1       -0.1633
      5 N         138.8275  139.7568  167.7426 N.ar    1  UNL1       -0.2270
      6 C         137.9965  139.4808  166.5247 C.ar    1  UNL1        0.1005
      7 C         138.8167  139.8239  165.3166 C.ar    1  UNL1        0.0237
      8 C         140.1545  140.3119  165.7878 C.ar    1  UNL1        0.0220
      9 C         140.1612  140.2705  167.2872 C.ar    1  UNL1        0.0961
     10 C         138.3763  139.7005  163.8880 C.ar    1  UNL1        0.0399
     11 C         137.7649  140.8775  163.1873 C.ar    1  UNL1        0.1022
     12 N         137.3245  140.7540  161.7587 N.ar    1  UNL1       -0.2224
     13 C         137.4956  139.4537  161.0308 C.ar    1  UNL1        0.1989
     14 N         138.1070  138.2768  161.7314 N.ar    1  UNL1       -0.2224
     15 C         138.5474  138.4002  163.1600 C.ar    1  UNL1        0.1022
     16 C         141.9722  140.8478  170.7710 C.2     1  UNL1        0.2456
     17 N         143.1625  139.9571  170.9701 N.am    1  UNL1       -0.3252
     18 O         141.8301  142.1020  171.5812 O.2     1  UNL1       -0.2703
     19 H         143.2558  139.1338  170.4383 H       1  UNL1        0.1453
     20 H         143.8506  140.1957  171.6326 H       1  UNL1        0.1453
     21 N         142.5431  141.1478  167.8412 N.pl3   1  UNL1       -0.3327
     22 H         142.9826  141.8792  168.3321 H       1  UNL1        0.1468
     23 C         143.3130  142.5107  166.2359 C.3     1  UNL1        0.0029
     24 C         143.7770  141.3041  165.4751 C.3     1  UNL1        0.0282
     25 C         144.2499  142.3136  164.4715 C.3     1  UNL1        0.0029
     26 C         143.2071  140.5469  166.6378 C.3     1  UNL1        0.0702
     27 C         143.4177  139.0833  166.3858 C.3     1  UNL1        0.0208
     28 C         144.1178  138.9360  165.0674 C.3     1  UNL1        0.0160
     29 C         144.3398  140.3085  164.5046 C.3     1  UNL1        0.0404
     30 C         144.6951  141.5262  163.7039 C.3     1  UNL1        0.0156
     31 N         144.9770  139.5675  163.3667 N.3     1  UNL1       -0.3231
     32 H         144.9353  138.5646  163.5482 H       1  UNL1        0.1188
     33 H         145.9510  139.8564  163.2757 H       1  UNL1        0.1188
@<TRIPOS>BOND
     1    23    24    1
     2    24    25    1
     3    24    26    1
     4    26    21    1
     5    21     1    1
     6     1     2   ar
     7     2    16    1
     8    16    17   am
     9    16    18    2
    10     2     3   ar
    11     3     4   ar
    12     4     5   ar
    13     5     6   ar
    14     6     7   ar
    15     7    10    1
    16    10    11   ar
    17    11    12   ar
    18    12    13   ar
    19    13    14   ar
    20    14    15   ar
    21     7     8   ar
    22     8     9   ar
    23    26    27    1
    24    27    28    1
    25    28    29    1
    26    29    30    1
    27    29    31    1
    28    29    24    1
    29     9     1   ar
    30     9     5   ar
    31    15    10   ar
    32    21    22    1
    33    17    19    1
    34    17    20    1
    35    31    32    1
    36    31    33    1
@<TRIPOS>MOLECULE
*****
 33 36 0 0 0
SMALL
GASTEIGER

@<TRIPOS>ATOM
      1 C         141.7838  139.9239  167.5173 C.ar    1  UNL1        0.0685
      2 C         141.5939  139.9503  169.0049 C.ar    1  UNL1        0.0885
      3 C         140.2123  139.8913  169.5858 C.ar    1  UNL1        0.1263
      4 N         139.0204  139.8060  168.6790 N.ar    1  UNL1       -0.1633
      5 N         139.2103  139.7796  167.1914 N.ar    1  UNL1       -0.2270
      6 C         138.2332  139.7001  166.0561 C.ar    1  UNL1        0.1005
      7 C         139.0110  139.7099  164.7736 C.ar    1  UNL1        0.0237
      8 C         140.4688  139.7955  165.1162 C.ar    1  UNL1        0.0220
      9 C         140.5920  139.8386  166.6105 C.ar    1  UNL1        0.0961
     10 C         138.4325  139.6454  163.3911 C.ar    1  UNL1        0.0399
     11 C         137.9041  140.8893  162.7404 C.ar    1  UNL1        0.1022
     12 N         137.3257  140.8247  161.3579 N.ar    1  UNL1       -0.2224
     13 C         137.2756  139.5163  160.6261 C.ar    1  UNL1        0.1989
     14 N         137.8040  138.2724  161.2768 N.ar    1  UNL1       -0.2224
     15 C         138.3825  138.3370  162.6593 C.ar    1  UNL1        0.1022
     16 C         142.7859  140.0356  169.9117 C.2     1  UNL1        0.2456
     17 N         143.1764  138.8547  170.7501 N.am    1  UNL1       -0.3252
     18 O         143.5871  141.3018  169.9801 O.2     1  UNL1       -0.2703
     19 H         142.6505  138.0237  170.7052 H       1  UNL1        0.1453
     20 H         143.9586  138.9107  171.3452 H       1  UNL1        0.1453
     21 N         143.1656  139.9829  166.9364 N.pl3   1  UNL1       -0.3327
     22 H         143.8448  139.3268  167.2144 H       1  UNL1        0.1468
     23 C         144.1807  139.3769  165.0312 C.3     1  UNL1        0.0029
     24 C         144.1888  140.8171  164.6120 C.3     1  UNL1        0.0282
     25 C         144.8636  140.2914  163.3799 C.3     1  UNL1        0.0029
     26 C         143.5123  141.0417  165.9318 C.3     1  UNL1        0.0702
     27 C         143.2434  142.5108  166.0709 C.3     1  UNL1        0.0208
     28 C         143.7537  143.1942  164.8370 C.3     1  UNL1        0.0160
     29 C         144.3380  142.1474  163.9354 C.3     1  UNL1        0.0404
     30 C         144.9816  141.3436  162.8447 C.3     1  UNL1        0.0156
     31 N         144.6217  143.3097  163.0307 N.3     1  UNL1       -0.3231
     32 H         144.2902  144.1697  163.4678 H       1  UNL1        0.1188
     33 H         144.1414  143.1734  162.1412 H       1  UNL1        0.1188
@<TRIPOS>BOND
     1    23    24    1
     2    24    25    1
     3    24    26    1
     4    26    21    1
     5    21     1    1
     6     1     2   ar
     7     2    16    1
     8    16    17   am
     9    16    18    2
    10     2     3   ar
    11     3     4   ar
    12     4     5   ar
    13     5     6   ar
    14     6     7   ar
    15     7    10    1
    16    10    11   ar
    17    11    12   ar
    18    12    13   ar
    19    13    14   ar
    20    14    15   ar
    21     7     8   ar
    22     8     9   ar
    23    26    27    1
    24    27    28    1
    25    28    29    1
    26    29    30    1
    27    29    31    1
    28    29    24    1
    29     9     1   ar
    30     9     5   ar
    31    15    10   ar
    32    21    22    1
    33    17    19    1
    34    17    20    1
    35    31    32    1
    36    31    33    1
@<TRIPOS>MOLECULE
*****
 33 36 0 0 0
SMALL
GASTEIGER

@<TRIPOS>ATOM
      1 C         140.5434  140.3846  167.3745 C.ar    1  UNL1        0.0685
      2 C         140.5011  140.6587  168.8486 C.ar    1  UNL1        0.0885
      3 C         141.4647  141.6331  169.4582 C.ar    1  UNL1        0.1263
      4 N         142.4709  142.3335  168.5937 N.ar    1  UNL1       -0.1633
      5 N         142.5132  142.0594  167.1196 N.ar    1  UNL1       -0.2270
      6 C         143.3866  142.5946  166.0239 C.ar    1  UNL1        0.1005
      7 C         142.9627  141.9509  164.7371 C.ar    1  UNL1        0.0237
      8 C         141.8273  141.0178  165.0375 C.ar    1  UNL1        0.0220
      9 C         141.5494  141.0849  166.5100 C.ar    1  UNL1        0.0961
     10 C         143.5680  142.1969  163.3869 C.ar    1  UNL1        0.0399
     11 C         143.1530  143.3954  162.5861 C.ar    1  UNL1        0.1022
     12 N         143.7583  143.6414  161.2358 N.ar    1  UNL1       -0.2224
     13 C         144.7786  142.6890  160.6864 C.ar    1  UNL1        0.1989
     14 N         145.1936  141.4905  161.4872 N.ar    1  UNL1       -0.2224
     15 C         144.5883  141.2445  162.8375 C.ar    1  UNL1        0.1022
     16 C         139.4950  139.9583  169.7131 C.2     1  UNL1        0.2456
     17 N         139.8373  139.6115  171.1318 N.am    1  UNL1       -0.3252
     18 O         138.1467  139.6048  169.1590 O.2     1  UNL1       -0.2703
     19 H         140.7222  139.8435  171.4954 H       1  UNL1        0.1453
     20 H         139.1770  139.1518  171.6992 H       1  UNL1        0.1453
     21 N         139.5797  139.4101  166.7649 N.pl3   1  UNL1       -0.3327
     22 H         139.3777  138.5638  167.2257 H       1  UNL1        0.1468
     23 C         139.6083  137.8640  165.1413 C.3     1  UNL1        0.0029
     24 C         138.8483  138.8141  164.2639 C.3     1  UNL1        0.0282
     25 C         138.9319  137.7045  163.2580 C.3     1  UNL1        0.0029
     26 C         138.9236  139.7250  165.4532 C.3     1  UNL1        0.0702
     27 C         138.2276  141.0061  165.1006 C.3     1  UNL1        0.0208
     28 C         137.7223  140.8870  163.6934 C.3     1  UNL1        0.0160
     29 C         138.1059  139.5322  163.1763 C.3     1  UNL1        0.0404
     30 C         138.3447  138.2725  162.3978 C.3     1  UNL1        0.0156
     31 N         137.4133  139.9870  161.9259 N.3     1  UNL1       -0.3231
     32 H         137.0557  140.9328  162.0600 H       1  UNL1        0.1188
     33 H         136.6386  139.3569  161.7179 H       1  UNL1        0.1188
@<TRIPOS>BOND
     1    23    24    1
     2    24    25    1
     3    24    26    1
     4    26    21    1
     5    21     1    1
     6     1     2   ar
     7     2    16    1
     8    16    17   am
     9    16    18    2
    10     2     3   ar
    11     3     4   ar
    12     4     5   ar
    13     5     6   ar
    14     6     7   ar
    15     7    10    1
    16    10    11   ar
    17    11    12   ar
    18    12    13   ar
    19    13    14   ar
    20    14    15   ar
    21     7     8   ar
    22     8     9   ar
    23    26    27    1
    24    27    28    1
    25    28    29    1
    26    29    30    1
    27    29    31    1
    28    29    24    1
    29     9     1   ar
    30     9     5   ar
    31    15    10   ar
    32    21    22    1
    33    17    19    1
    34    17    20    1
    35    31    32    1
    36    31    33    1
@<TRIPOS>MOLECULE
*****
 33 36 0 0 0
SMALL
GASTEIGER

@<TRIPOS>ATOM
      1 C         141.8276  140.7430  167.0299 C.ar    1  UNL1        0.0685
      2 C         141.4107  140.7091  168.4703 C.ar    1  UNL1        0.0885
      3 C         140.5211  141.7848  169.0191 C.ar    1  UNL1        0.1263
      4 N         140.0482  142.8945  168.1275 N.ar    1  UNL1       -0.1633
      5 N         140.4651  142.9284  166.6870 N.ar    1  UNL1       -0.2270
      6 C         140.1595  143.8888  165.5760 C.ar    1  UNL1        0.1005
      7 C         140.8603  143.4066  164.3406 C.ar    1  UNL1        0.0237
      8 C         141.5991  142.1482  164.6880 C.ar    1  UNL1        0.0220
      9 C         141.3548  141.8526  166.1382 C.ar    1  UNL1        0.0961
     10 C         140.8280  144.0668  162.9941 C.ar    1  UNL1        0.0399
     11 C         139.6074  144.8218  162.5580 C.ar    1  UNL1        0.1022
     12 N         139.5753  145.4820  161.2115 N.ar    1  UNL1       -0.2224
     13 C         140.7636  145.3873  160.3011 C.ar    1  UNL1        0.1989
     14 N         141.9841  144.6322  160.7371 N.ar    1  UNL1       -0.2224
     15 C         142.0163  143.9720  162.0836 C.ar    1  UNL1        0.1022
     16 C         141.8836  139.5994  169.3620 C.2     1  UNL1        0.2456
     17 N         141.0879  139.2223  170.5764 N.am    1  UNL1       -0.3252
     18 O         143.1520  138.8668  169.0393 O.2     1  UNL1       -0.2703
     19 H         140.2553  139.7032  170.7881 H       1  UNL1        0.1453
     20 H         141.3981  138.4940  171.1616 H       1  UNL1        0.1453
     21 N         142.7173  139.6672  166.4811 N.pl3   1  UNL1       -0.3327
     22 H         143.5673  139.4547  166.9301 H       1  UNL1        0.1468
     23 C         144.1050  139.6474  164.7199 C.3     1  UNL1        0.0029
     24 C         143.1122  138.7965  163.9848 C.3     1  UNL1        0.0282
     25 C         144.1200  138.8556  162.8754 C.3     1  UNL1        0.0029
     26 C         142.3120  138.9153  165.2479 C.3     1  UNL1        0.0702
     27 C         141.0354  138.1502  165.0616 C.3     1  UNL1        0.0208
     28 C         141.0466  137.5585  163.6833 C.3     1  UNL1        0.0160
     29 C         142.3302  137.9580  163.0178 C.3     1  UNL1        0.0404
     30 C         143.5014  138.1924  162.1105 C.3     1  UNL1        0.0156
     31 N         141.7929  137.1685  161.8611 N.3     1  UNL1       -0.3231
     32 H         140.8799  136.7852  162.1058 H       1  UNL1        0.1188
     33 H         142.4343  136.4060  161.6427 H       1  UNL1        0.1188
@<TRIPOS>BOND
     1    23    24    1
     2    24    25    1
     3    24    26    1
     4    26    21    1
     5    21     1    1
     6     1     2   ar
     7     2    16    1
     8    16    17   am
     9    16    18    2
    10     2     3   ar
    11     3     4   ar
    12     4     5   ar
    13     5     6   ar
    14     6     7   ar
    15     7    10    1
    16    10    11   ar
    17    11    12   ar
    18    12    13   ar
    19    13    14   ar
    20    14    15   ar
    21     7     8   ar
    22     8     9   ar
    23    26    27    1
    24    27    28    1
    25    28    29    1
    26    29    30    1
    27    29    31    1
    28    29    24    1
    29     9     1   ar
    30     9     5   ar
    31    15    10   ar
    32    21    22    1
    33    17    19    1
    34    17    20    1
    35    31    32    1
    36    31    33    1
@<TRIPOS>MOLECULE
*****
 33 36 0 0 0
SMALL
GASTEIGER

@<TRIPOS>ATOM
      1 C         140.6780  140.1030  167.2429 C.ar    1  UNL1        0.0685
      2 C         141.1309  139.9649  168.6661 C.ar    1  UNL1        0.0885
      3 C         142.4438  139.3086  168.9750 C.ar    1  UNL1        0.1263
      4 N         143.3039  138.7904  167.8606 N.ar    1  UNL1       -0.1633
      5 N         142.8509  138.9285  166.4373 N.ar    1  UNL1       -0.2270
      6 C         143.4802  138.5171  165.1394 C.ar    1  UNL1        0.1005
      7 C         142.5561  138.9191  164.0283 C.ar    1  UNL1        0.0237
      8 C         141.3557  139.5790  164.6396 C.ar    1  UNL1        0.0220
      9 C         141.5380  139.5849  166.1285 C.ar    1  UNL1        0.0961
     10 C         142.7911  138.6997  162.5632 C.ar    1  UNL1        0.0399
     11 C         141.7543  138.0022  161.7335 C.ar    1  UNL1        0.1022
     12 N         141.9893  137.7828  160.2683 N.ar    1  UNL1       -0.2224
     13 C         143.2612  138.2609  159.6329 C.ar    1  UNL1        0.1989
     14 N         144.2980  138.9584  160.4626 N.ar    1  UNL1       -0.2224
     15 C         144.0630  139.1778  161.9277 C.ar    1  UNL1        0.1022
     16 C         140.2708  140.4831  169.7806 C.2     1  UNL1        0.2456
     17 N         139.9604  139.6069  170.9578 N.am    1  UNL1       -0.3252
     18 O         139.7213  141.8773  169.7177 O.2     1  UNL1       -0.2703
     19 H         140.3211  138.6918  170.9990 H       1  UNL1        0.1453
     20 H         139.3959  139.9470  171.6892 H       1  UNL1        0.1453
     21 N         139.3650  140.7594  166.9340 N.pl3   1  UNL1       -0.3327
     22 H         138.5353  140.4134  167.3354 H       1  UNL1        0.1468
     23 C         138.0294  140.6774  165.1349 C.3     1  UNL1        0.0029
     24 C         138.4839  142.0598  164.7712 C.3     1  UNL1        0.0282
     25 C         137.5565  141.8878  163.6049 C.3     1  UNL1        0.0029
     26 C         139.3163  141.9428  166.0135 C.3     1  UNL1        0.0702
     27 C         140.0913  143.2170  166.1739 C.3     1  UNL1        0.0208
     28 C         139.7380  144.1215  165.0307 C.3     1  UNL1        0.0160
     29 C         138.7445  143.4063  164.1638 C.3     1  UNL1        0.0404
     30 C         137.7626  142.9528  163.1244 C.3     1  UNL1        0.0156
     31 N         138.7999  144.6580  163.3390 N.3     1  UNL1       -0.3231
     32 H         139.4492  145.3184  163.7665 H       1  UNL1        0.1188
     33 H         137.8707  145.0762  163.2929 H       1  UNL1        0.1188
@<TRIPOS>BOND
     1    23    24    1
     2    24    25    1
     3    24    26    1
     4    26    21    1
     5    21     1    1
     6     1     2   ar
     7     2    16    1
     8    16    17   am
     9    16    18    2
    10     2     3   ar
    11     3     4   ar
    12     4     5   ar
    13     5     6   ar
    14     6     7   ar
    15     7    10    1
    16    10    11   ar
    17    11    12   ar
    18    12    13   ar
    19    13    14   ar
    20    14    15   ar
    21     7     8   ar
    22     8     9   ar
    23    26    27    1
    24    27    28    1
    25    28    29    1
    26    29    30    1
    27    29    31    1
    28    29    24    1
    29     9     1   ar
    30     9     5   ar
    31    15    10   ar
    32    21    22    1
    33    17    19    1
    34    17    20    1
    35    31    32    1
    36    31    33    1
@<TRIPOS>MOLECULE
*****
 33 36 0 0 0
SMALL
GASTEIGER

@<TRIPOS>ATOM
      1 C         141.1264  140.5641  167.4607 C.ar    1  UNL1        0.0685
      2 C         141.3675  140.0811  168.8602 C.ar    1  UNL1        0.0885
      3 C         142.4748  139.1081  169.1375 C.ar    1  UNL1        0.1263
      4 N         143.3411  138.6180  168.0153 N.ar    1  UNL1       -0.1633
      5 N         143.1001  139.1010  166.6158 N.ar    1  UNL1       -0.2270
      6 C         143.7856  138.7964  165.3169 C.ar    1  UNL1        0.1005
      7 C         143.1019  139.5813  164.2368 C.ar    1  UNL1        0.0237
      8 C         141.9938  140.3709  164.8682 C.ar    1  UNL1        0.0220
      9 C         141.9927  140.0741  166.3385 C.ar    1  UNL1        0.0961
     10 C         143.4629  139.5772  162.7809 C.ar    1  UNL1        0.0399
     11 C         143.6746  138.2766  162.0643 C.ar    1  UNL1        0.1022
     12 N         144.0356  138.2726  160.6083 N.ar    1  UNL1       -0.2224
     13 C         144.1848  139.5691  159.8690 C.ar    1  UNL1        0.1989
     14 N         143.9731  140.8698  160.5856 N.ar    1  UNL1       -0.2224
     15 C         143.6121  140.8737  162.0416 C.ar    1  UNL1        0.1022
     16 C         140.5011  140.5713  169.9824 C.2     1  UNL1        0.2456
     17 N         140.0151  139.6123  171.0284 N.am    1  UNL1       -0.3252
     18 O         140.1208  142.0202  170.0586 O.2     1  UNL1       -0.2703
     19 H         140.2647  138.6613  170.9784 H       1  UNL1        0.1453
     20 H         139.4464  139.9339  171.7650 H       1  UNL1        0.1453
     21 N         140.0190  141.5372  167.1835 N.pl3   1  UNL1       -0.3327
     22 H         139.8807  142.3085  167.7795 H       1  UNL1        0.1468
     23 C         139.5743  143.2855  165.8517 C.3     1  UNL1        0.0029
     24 C         138.7204  142.3870  165.0070 C.3     1  UNL1        0.0282
     25 C         138.4971  143.6266  164.1926 C.3     1  UNL1        0.0029
     26 C         139.1223  141.3351  165.9980 C.3     1  UNL1        0.0702
     27 C         138.4701  140.0457  165.5955 C.3     1  UNL1        0.0208
     28 C         137.6651  140.3006  164.3558 C.3     1  UNL1        0.0160
     29 C         137.8199  141.7476  163.9921 C.3     1  UNL1        0.0404
     30 C         137.7848  143.1210  163.3899 C.3     1  UNL1        0.0156
     31 N         136.9119  141.3954  162.8512 N.3     1  UNL1       -0.3231
     32 H         136.6676  140.4065  162.9040 H       1  UNL1        0.1188
     33 H         137.3875  141.5815  161.9683 H       1  UNL1        0.1188
@<TRIPOS>BOND
     1    23    24    1
     2    24    25    1
     3    24    26    1
     4    26    21    1
     5    21     1    1
     6     1     2   ar
     7     2    16    1
     8    16    17   am
     9    16    18    2
    10     2     3   ar
    11     3     4   ar
    12     4     5   ar
    13     5     6   ar
    14     6     7   ar
    15     7    10    1
    16    10    11   ar
    17    11    12   ar
    18    12    13   ar
    19    13    14   ar
    20    14    15   ar
    21     7     8   ar
    22     8     9   ar
    23    26    27    1
    24    27    28    1
    25    28    29    1
    26    29    30    1
    27    29    31    1
    28    29    24    1
    29     9     1   ar
    30     9     5   ar
    31    15    10   ar
    32    21    22    1
    33    17    19    1
    34    17    20    1
    35    31    32    1
    36    31    33    1
@<TRIPOS>MOLECULE
*****
 33 36 0 0 0
SMALL
GASTEIGER

@<TRIPOS>ATOM
      1 C         140.2710  140.4032  166.1116 C.ar    1  UNL1        0.0685
      2 C         139.5031  140.0270  167.3440 C.ar    1  UNL1        0.0885
      3 C         138.4245  138.9876  167.2674 C.ar    1  UNL1        0.1263
      4 N         138.1137  138.3241  165.9584 N.ar    1  UNL1       -0.1633
      5 N         138.8816  138.7003  164.7260 N.ar    1  UNL1       -0.2270
      6 C         138.7993  138.2214  163.3069 C.ar    1  UNL1        0.1005
      7 C         139.8272  138.9649  162.5065 C.ar    1  UNL1        0.0237
      8 C         140.5447  139.9034  163.4309 C.ar    1  UNL1        0.0220
      9 C         139.9603  139.7399  164.8026 C.ar    1  UNL1        0.0961
     10 C         140.0912  138.7992  161.0392 C.ar    1  UNL1        0.0399
     11 C         141.4609  138.4168  160.5621 C.ar    1  UNL1        0.1022
     12 N         141.7248  138.2510  159.0948 N.ar    1  UNL1       -0.2224
     13 C         140.6191  138.4676  158.1047 C.ar    1  UNL1        0.1989
     14 N         139.2494  138.8500  158.5818 N.ar    1  UNL1       -0.2224
     15 C         138.9854  139.0158  160.0491 C.ar    1  UNL1        0.1022
     16 C         139.8139  140.6904  168.6530 C.2     1  UNL1        0.2456
     17 N         139.7917  139.8917  169.9224 N.am    1  UNL1       -0.3252
     18 O         140.1467  142.1524  168.6925 O.2     1  UNL1       -0.2703
     19 H         139.5733  138.9321  169.8965 H       1  UNL1        0.1453
     20 H         139.9957  140.3270  170.7815 H       1  UNL1        0.1453
     21 N         141.3497  141.4427  166.1882 N.pl3   1  UNL1       -0.3327
     22 H         142.1391  141.2920  166.7570 H       1  UNL1        0.1468
     23 C         143.2022  142.3685  165.3287 C.3     1  UNL1        0.0029
     24 C         142.3530  143.4639  164.7552 C.3     1  UNL1        0.0282
     25 C         143.6579  143.9868  164.2319 C.3     1  UNL1        0.0029
     26 C         141.2257  142.7119  165.3983 C.3     1  UNL1        0.0702
     27 C         139.9525  143.4519  165.1129 C.3     1  UNL1        0.0208
     28 C         140.2930  144.6612  164.2934 C.3     1  UNL1        0.0160
     29 C         141.7766  144.6686  164.0723 C.3     1  UNL1        0.0404
     30 C         143.2020  144.9397  163.6918 C.3     1  UNL1        0.0156
     31 N         141.4981  145.9300  163.3099 N.3     1  UNL1       -0.3231
     32 H         140.4974  146.1261  163.3310 H       1  UNL1        0.1188
     33 H         141.8021  145.8169  162.3428 H       1  UNL1        0.1188
@<TRIPOS>BOND
     1    23    24    1
     2    24    25    1
     3    24    26    1
     4    26    21    1
     5    21     1    1
     6     1     2   ar
     7     2    16    1
     8    16    17   am
     9    16    18    2
    10     2     3   ar
    11     3     4   ar
    12     4     5   ar
    13     5     6   ar
    14     6     7   ar
    15     7    10    1
    16    10    11   ar
    17    11    12   ar
    18    12    13   ar
    19    13    14   ar
    20    14    15   ar
    21     7     8   ar
    22     8     9   ar
    23    26    27    1
    24    27    28    1
    25    28    29    1
    26    29    30    1
    27    29    31    1
    28    29    24    1
    29     9     1   ar
    30     9     5   ar
    31    15    10   ar
    32    21    22    1
    33    17    19    1
    34    17    20    1
    35    31    32    1
    36    31    33    1
@<TRIPOS>MOLECULE
*****
 33 36 0 0 0
SMALL
GASTEIGER

@<TRIPOS>ATOM
      1 C         138.4603  140.4150  163.0206 C.ar    1  UNL1        0.0685
      2 C         138.3309  139.2138  162.1316 C.ar    1  UNL1        0.0885
      3 C         138.6483  137.8483  162.6651 C.ar    1  UNL1        0.1263
      4 N         139.0950  137.6840  164.0876 N.ar    1  UNL1       -0.1633
      5 N         139.2244  138.8852  164.9765 N.ar    1  UNL1       -0.2270
      6 C         139.6389  139.0326  166.4106 C.ar    1  UNL1        0.1005
      7 C         139.5776  140.4892  166.7634 C.ar    1  UNL1        0.0237
      8 C         139.1254  141.2421  165.5474 C.ar    1  UNL1        0.0220
      9 C         138.9071  140.2507  164.4430 C.ar    1  UNL1        0.0961
     10 C         139.9103  141.0879  168.0979 C.ar    1  UNL1        0.0399
     11 C         139.5480  140.3594  169.3580 C.ar    1  UNL1        0.1022
     12 N         139.8807  140.9582  170.6925 N.ar    1  UNL1       -0.2224
     13 C         140.5756  142.2854  170.7669 C.ar    1  UNL1        0.1989
     14 N         140.9379  143.0140  169.5067 N.ar    1  UNL1       -0.2224
     15 C         140.6052  142.4152  168.1722 C.ar    1  UNL1        0.1022
     16 C         137.8842  139.3781  160.7091 C.2     1  UNL1        0.2456
     17 N         136.4210  139.3853  160.3787 N.am    1  UNL1       -0.3252
     18 O         138.9004  139.5353  159.6172 O.2     1  UNL1       -0.2703
     19 H         135.7540  139.2822  161.0954 H       1  UNL1        0.1453
     20 H         136.1278  139.4932  159.4451 H       1  UNL1        0.1453
     21 N         138.1430  141.7805  162.4870 N.pl3   1  UNL1       -0.3327
     22 H         137.2107  142.0962  162.4654 H       1  UNL1        0.1468
     23 C         138.0176  143.9870  162.8657 C.3     1  UNL1        0.0029
     24 C         139.3250  144.1542  162.1495 C.3     1  UNL1        0.0282
     25 C         139.1304  145.6082  162.4623 C.3     1  UNL1        0.0029
     26 C         139.2461  142.6652  161.9864 C.3     1  UNL1        0.0702
     27 C         140.4641  142.2161  161.2348 C.3     1  UNL1        0.0208
     28 C         141.2956  143.4276  160.9334 C.3     1  UNL1        0.0160
     29 C         140.5916  144.6253  161.4987 C.3     1  UNL1        0.0404
     30 C         140.1323  145.9809  161.9476 C.3     1  UNL1        0.0156
     31 N         141.7622  145.3799  160.9418 N.3     1  UNL1       -0.3231
     32 H         142.4026  144.7279  160.4886 H       1  UNL1        0.1188
     33 H         142.2472  145.8621  161.6986 H       1  UNL1        0.1188
@<TRIPOS>BOND
     1    23    24    1
     2    24    25    1
     3    24    26    1
     4    26    21    1
     5    21     1    1
     6     1     2   ar
     7     2    16    1
     8    16    17   am
     9    16    18    2
    10     2     3   ar
    11     3     4   ar
    12     4     5   ar
    13     5     6   ar
    14     6     7   ar
    15     7    10    1
    16    10    11   ar
    17    11    12   ar
    18    12    13   ar
    19    13    14   ar
    20    14    15   ar
    21     7     8   ar
    22     8     9   ar
    23    26    27    1
    24    27    28    1
    25    28    29    1
    26    29    30    1
    27    29    31    1
    28    29    24    1
    29     9     1   ar
    30     9     5   ar
    31    15    10   ar
    32    21    22    1
    33    17    19    1
    34    17    20    1
    35    31    32    1
    36    31    33    1
@<TRIPOS>MOLECULE
*****
 33 36 0 0 0
SMALL
GASTEIGER

@<TRIPOS>ATOM
      1 C         140.8882  139.3863  163.9945 C.ar    1  UNL1        0.0685
      2 C         139.8568  138.4000  163.5327 C.ar    1  UNL1        0.0885
      3 C         138.7901  137.9324  164.4778 C.ar    1  UNL1        0.1263
      4 N         138.7547  138.4510  165.8849 N.ar    1  UNL1       -0.1633
      5 N         139.7862  139.4373  166.3468 N.ar    1  UNL1       -0.2270
      6 C         140.0035  140.1191  167.6650 C.ar    1  UNL1        0.1005
      7 C         141.2046  141.0081  167.5346 C.ar    1  UNL1        0.0237
      8 C         141.7296  140.8758  166.1357 C.ar    1  UNL1        0.0220
      9 C         140.8529  139.9049  165.4016 C.ar    1  UNL1        0.0961
     10 C         141.7797  141.8770  168.6136 C.ar    1  UNL1        0.0399
     11 C         140.8878  142.8034  169.3857 C.ar    1  UNL1        0.1022
     12 N         141.4630  143.6722  170.4648 N.ar    1  UNL1       -0.2224
     13 C         142.9302  143.6147  170.7717 C.ar    1  UNL1        0.1989
     14 N         143.8221  142.6884  169.9995 N.ar    1  UNL1       -0.2224
     15 C         143.2469  141.8195  168.9205 C.ar    1  UNL1        0.1022
     16 C         139.8921  137.8814  162.1256 C.2     1  UNL1        0.2456
     17 N         138.6280  137.8077  161.3215 N.am    1  UNL1       -0.3252
     18 O         141.1914  137.4365  161.5226 O.2     1  UNL1       -0.2703
     19 H         137.7751  138.0997  161.7173 H       1  UNL1        0.1453
     20 H         138.6511  137.4674  160.3980 H       1  UNL1        0.1453
     21 N         141.9550  139.8539  163.0494 N.pl3   1  UNL1       -0.3327
     22 H         142.5925  139.2079  162.6680 H       1  UNL1        0.1468
     23 C         143.9595  140.8567  163.1129 C.3     1  UNL1        0.0029
     24 C         143.3028  142.1315  162.6728 C.3     1  UNL1        0.0282
     25 C         144.6924  142.6904  162.7525 C.3     1  UNL1        0.0029
     26 C         142.0504  141.3060  162.6852 C.3     1  UNL1        0.0702
     27 C         140.9102  142.1874  162.2694 C.3     1  UNL1        0.0208
     28 C         141.4578  143.5576  162.0001 C.3     1  UNL1        0.0160
     29 C         142.9365  143.5230  162.2494 C.3     1  UNL1        0.0404
     30 C         144.4028  143.7910  162.4176 C.3     1  UNL1        0.0156
     31 N         142.8768  144.9707  161.8612 N.3     1  UNL1       -0.3231
     32 H         141.9141  145.2235  161.6386 H       1  UNL1        0.1188
     33 H         143.4673  145.1283  161.0445 H       1  UNL1        0.1188
@<TRIPOS>BOND
     1    23    24    1
     2    24    25    1
     3    24    26    1
     4    26    21    1
     5    21     1    1
     6     1     2   ar
     7     2    16    1
     8    16    17   am
     9    16    18    2
    10     2     3   ar
    11     3     4   ar
    12     4     5   ar
    13     5     6   ar
    14     6     7   ar
    15     7    10    1
    16    10    11   ar
    17    11    12   ar
    18    12    13   ar
    19    13    14   ar
    20    14    15   ar
    21     7     8   ar
    22     8     9   ar
    23    26    27    1
    24    27    28    1
    25    28    29    1
    26    29    30    1
    27    29    31    1
    28    29    24    1
    29     9     1   ar
    30     9     5   ar
    31    15    10   ar
    32    21    22    1
    33    17    19    1
    34    17    20    1
    35    31    32    1
    36    31    33    1
