@<TRIPOS>MOLECULE
*****
 34 38 0 0 0
SMALL
GASTEIGER

@<TRIPOS>ATOM
      1 N         141.4948  145.4603  160.3716 N.3     1  UNL1       -0.3181
      2 C         141.5734  143.9646  160.4527 C.3     1  UNL1        0.1112
      3 H         142.3557  145.8244  159.9634 H       1  UNL1        0.1190
      4 H         141.3731  145.8456  161.3082 H       1  UNL1        0.1190
      5 C         142.7998  143.2506  159.9666 C.3     1  UNL1        0.2222
      6 O         144.0706  143.3171  160.7606 O.3     1  UNL1       -0.4726
      7 C         144.0231  143.2561  162.2585 C.ar    1  UNL1        0.1549
      8 C         144.0707  144.5215  163.0626 C.ar    1  UNL1        0.0384
      9 C         144.0232  144.4604  164.5607 C.ar    1  UNL1        0.0063
     10 C         143.9280  143.1340  165.2546 C.ar    1  UNL1        0.0384
     11 C         143.8804  141.8686  164.4505 C.ar    1  UNL1        0.1556
     12 C         143.9279  141.9296  162.9525 C.ar    1  UNL1        0.1192
     13 N         143.8802  140.6642  162.1484 N.am    1  UNL1       -0.2761
     14 C         143.7851  139.3378  162.8423 C.2     1  UNL1        0.2708
     15 O         143.7374  138.0725  162.0382 O.2     1  UNL1       -0.2707
     16 C         143.7375  139.2768  164.3403 C.3     1  UNL1        0.2897
     17 O         143.7852  140.5422  165.1444 O.3     1  UNL1       -0.4642
     18 H         143.9115  140.7043  161.1652 H       1  UNL1        0.1551
     19 C         140.4258  143.1828  161.0199 C.3     1  UNL1        0.0916
     20 N         140.3752  142.8838  162.4890 N.3     1  UNL1       -0.2712
     21 C         140.4507  144.0027  163.4851 C.3     1  UNL1        0.0757
     22 C         140.4001  143.7037  164.9541 C.3     1  UNL1        0.0577
     23 C         140.2740  142.2858  165.4270 C.3     1  UNL1        0.1399
     24 C         140.1985  141.1669  164.4309 C.3     1  UNL1        0.0577
     25 C         140.2490  141.4659  162.9619 C.3     1  UNL1        0.0757
     26 C         140.1501  140.9251  166.0460 C.3     1  UNL1        0.0695
     27 C         140.1379  141.0933  167.5366 C.ar    1  UNL1        0.0175
     28 C         140.0359  140.1021  168.6578 C.ar    1  UNL1        0.0285
     29 C         140.0503  140.5755  170.0810 C.ar    1  UNL1        0.1400
     30 F         139.9483  139.5843  171.2022 F       1  UNL1       -0.2042
     31 C         140.1668  142.0401  170.3832 C.ar    1  UNL1        0.0327
     32 C         140.2688  143.0314  169.2620 C.ar    1  UNL1        0.0389
     33 C         140.2544  142.5580  167.8387 C.ar    1  UNL1        0.1344
     34 O         140.3385  143.2950  166.5350 O.3     1  UNL1       -0.4825
@<TRIPOS>BOND
     1     2     1    1
     2     2     5    1
     3     5     6    1
     4     6     7    1
     5     7     8   ar
     6     8     9   ar
     7     9    10   ar
     8    10    11   ar
     9    11    12   ar
    10    12    13    1
    11    13    14   am
    12    14    15    2
    13    14    16    1
    14    16    17    1
    15     2    19    1
    16    19    20    1
    17    20    21    1
    18    21    22    1
    19    22    23    1
    20    23    24    1
    21    24    25    1
    22    23    26    1
    23    26    27    1
    24    27    28   ar
    25    28    29   ar
    26    29    30    1
    27    29    31   ar
    28    31    32   ar
    29    32    33   ar
    30    33    34    1
    31    12     7   ar
    32    25    20    1
    33    33    27   ar
    34    17    11    1
    35    34    23    1
    36     1     3    1
    37     1     4    1
    38    13    18    1
@<TRIPOS>MOLECULE
*****
 34 38 0 0 0
SMALL
GASTEIGER

@<TRIPOS>ATOM
      1 N         139.6394  138.3877  160.1260 N.3     1  UNL1       -0.3181
      2 C         138.7094  138.6172  161.2804 C.3     1  UNL1        0.1112
      3 H         139.3542  138.9701  159.3387 H       1  UNL1        0.1190
      4 H         139.6057  137.4057  159.8523 H       1  UNL1        0.1190
      5 C         137.5744  139.5889  161.1474 C.3     1  UNL1        0.2222
      6 O         137.8556  141.0406  160.8954 O.3     1  UNL1       -0.4726
      7 C         138.0380  141.9806  162.0500 C.ar    1  UNL1        0.1549
      8 C         137.5056  141.6171  163.4044 C.ar    1  UNL1        0.0384
      9 C         137.6881  142.5572  164.5590 C.ar    1  UNL1        0.0063
     10 C         138.4029  143.8607  164.3591 C.ar    1  UNL1        0.0384
     11 C         138.9353  144.2241  163.0047 C.ar    1  UNL1        0.1556
     12 C         138.7529  143.2841  161.8502 C.ar    1  UNL1        0.1192
     13 N         139.2853  143.6476  160.4957 N.am    1  UNL1       -0.2761
     14 C         140.0001  144.9511  160.2959 C.2     1  UNL1        0.2708
     15 O         140.5325  145.3145  158.9415 O.2     1  UNL1       -0.2707
     16 C         140.1825  145.8911  161.4505 C.3     1  UNL1        0.2897
     17 O         139.6501  145.5276  162.8049 O.3     1  UNL1       -0.4642
     18 H         139.1656  143.0306  159.7379 H       1  UNL1        0.1551
     19 C         138.9144  137.8750  162.5676 C.3     1  UNL1        0.0916
     20 N         139.3009  138.6211  163.8102 N.3     1  UNL1       -0.2712
     21 C         138.4729  138.4868  165.0538 C.3     1  UNL1        0.0757
     22 C         138.8595  139.2329  166.2963 C.3     1  UNL1        0.0577
     23 C         140.0740  140.1132  166.2953 C.3     1  UNL1        0.1399
     24 C         140.9019  140.2475  165.0517 C.3     1  UNL1        0.0577
     25 C         140.5154  139.5015  163.8092 C.3     1  UNL1        0.0757
     26 C         141.2551  141.0257  166.4443 C.3     1  UNL1        0.0695
     27 C         141.2584  141.5543  167.8482 C.ar    1  UNL1        0.0175
     28 C         142.1827  142.4933  168.5650 C.ar    1  UNL1        0.0285
     29 C         141.9278  142.8465  170.0004 C.ar    1  UNL1        0.1400
     30 F         142.8521  143.7856  170.7172 F       1  UNL1       -0.2042
     31 C         140.7487  142.2608  170.7189 C.ar    1  UNL1        0.0327
     32 C         139.8243  141.3217  170.0021 C.ar    1  UNL1        0.0389
     33 C         140.0791  140.9685  168.5668 C.ar    1  UNL1        0.1344
     34 O         139.3472  140.0779  167.6071 O.3     1  UNL1       -0.4825
@<TRIPOS>BOND
     1     2     1    1
     2     2     5    1
     3     5     6    1
     4     6     7    1
     5     7     8   ar
     6     8     9   ar
     7     9    10   ar
     8    10    11   ar
     9    11    12   ar
    10    12    13    1
    11    13    14   am
    12    14    15    2
    13    14    16    1
    14    16    17    1
    15     2    19    1
    16    19    20    1
    17    20    21    1
    18    21    22    1
    19    22    23    1
    20    23    24    1
    21    24    25    1
    22    23    26    1
    23    26    27    1
    24    27    28   ar
    25    28    29   ar
    26    29    30    1
    27    29    31   ar
    28    31    32   ar
    29    32    33   ar
    30    33    34    1
    31    12     7   ar
    32    25    20    1
    33    33    27   ar
    34    17    11    1
    35    34    23    1
    36     1     3    1
    37     1     4    1
    38    13    18    1
@<TRIPOS>MOLECULE
*****
 34 38 0 0 0
SMALL
GASTEIGER

@<TRIPOS>ATOM
      1 N         143.6313  139.1064  159.4901 N.3     1  UNL1       -0.3181
      2 C         143.2687  138.8500  160.9228 C.3     1  UNL1        0.1112
      3 H         142.9580  138.6420  158.8806 H       1  UNL1        0.1190
      4 H         144.5656  138.7412  159.3053 H       1  UNL1        0.1190
      5 C         142.0668  138.0160  161.2546 C.3     1  UNL1        0.2222
      6 O         140.7166  138.6590  161.3708 O.3     1  UNL1       -0.4726
      7 C         140.0606  138.7883  162.7134 C.ar    1  UNL1        0.1549
      8 C         140.1997  137.6897  163.7252 C.ar    1  UNL1        0.0384
      9 C         139.5436  137.8191  165.0679 C.ar    1  UNL1        0.0063
     10 C         138.7484  139.0471  165.3989 C.ar    1  UNL1        0.0384
     11 C         138.6093  140.1458  164.3872 C.ar    1  UNL1        0.1556
     12 C         139.2653  140.0164  163.0445 C.ar    1  UNL1        0.1192
     13 N         139.1262  141.1151  162.0328 N.am    1  UNL1       -0.2761
     14 C         138.3310  142.3431  162.3637 C.2     1  UNL1        0.2708
     15 O         138.1918  143.4418  161.3520 O.2     1  UNL1       -0.2707
     16 C         137.6749  142.4724  163.7064 C.3     1  UNL1        0.2897
     17 O         137.8141  141.3738  164.7181 O.3     1  UNL1       -0.4642
     18 H         139.5568  141.0302  161.1515 H       1  UNL1        0.1551
     19 C         144.1078  139.4276  162.0238 C.3     1  UNL1        0.0916
     20 N         143.4844  139.7579  163.3476 N.3     1  UNL1       -0.2712
     21 C         143.5486  138.7698  164.4743 C.3     1  UNL1        0.0757
     22 C         142.9252  139.1002  165.7979 C.3     1  UNL1        0.0577
     23 C         142.2376  140.4187  165.9949 C.3     1  UNL1        0.1399
     24 C         142.1733  141.4068  164.8682 C.3     1  UNL1        0.0577
     25 C         142.7967  141.0764  163.5445 C.3     1  UNL1        0.0757
     26 C         141.5199  141.6902  166.3387 C.3     1  UNL1        0.0695
     27 C         141.0611  141.5929  167.7636 C.ar    1  UNL1        0.0175
     28 C         140.3042  142.5448  168.6415 C.ar    1  UNL1        0.0285
     29 C         139.9813  142.1650  170.0563 C.ar    1  UNL1        0.1400
     30 F         139.2244  143.1170  170.9343 F       1  UNL1       -0.2042
     31 C         140.4154  140.8334  170.5931 C.ar    1  UNL1        0.0327
     32 C         141.1724  139.8814  169.7151 C.ar    1  UNL1        0.0389
     33 C         141.4952  140.2611  168.3004 C.ar    1  UNL1        0.1344
     34 O         142.2223  139.5355  167.2073 O.3     1  UNL1       -0.4825
@<TRIPOS>BOND
     1     2     1    1
     2     2     5    1
     3     5     6    1
     4     6     7    1
     5     7     8   ar
     6     8     9   ar
     7     9    10   ar
     8    10    11   ar
     9    11    12   ar
    10    12    13    1
    11    13    14   am
    12    14    15    2
    13    14    16    1
    14    16    17    1
    15     2    19    1
    16    19    20    1
    17    20    21    1
    18    21    22    1
    19    22    23    1
    20    23    24    1
    21    24    25    1
    22    23    26    1
    23    26    27    1
    24    27    28   ar
    25    28    29   ar
    26    29    30    1
    27    29    31   ar
    28    31    32   ar
    29    32    33   ar
    30    33    34    1
    31    12     7   ar
    32    25    20    1
    33    33    27   ar
    34    17    11    1
    35    34    23    1
    36     1     3    1
    37     1     4    1
    38    13    18    1
@<TRIPOS>MOLECULE
*****
 34 38 0 0 0
SMALL
GASTEIGER

@<TRIPOS>ATOM
      1 N         141.8220  145.5066  160.1230 N.3     1  UNL1       -0.3181
      2 C         140.7560  145.0107  161.0545 C.3     1  UNL1        0.1112
      3 H         141.7296  145.0394  159.2210 H       1  UNL1        0.1190
      4 H         142.7402  145.3040  160.5184 H       1  UNL1        0.1190
      5 C         139.7717  143.9798  160.5870 C.3     1  UNL1        0.2222
      6 O         140.0374  142.5239  160.8318 O.3     1  UNL1       -0.4726
      7 C         139.3959  141.8301  161.9967 C.ar    1  UNL1        0.1549
      8 C         137.9908  142.1739  162.3935 C.ar    1  UNL1        0.0384
      9 C         137.3494  141.4800  163.5585 C.ar    1  UNL1        0.0063
     10 C         138.1130  140.4423  164.3266 C.ar    1  UNL1        0.0384
     11 C         139.5181  140.0985  163.9298 C.ar    1  UNL1        0.1556
     12 C         140.1596  140.7924  162.7649 C.ar    1  UNL1        0.1192
     13 N         141.5647  140.4485  162.3680 N.am    1  UNL1       -0.2761
     14 C         142.3283  139.4109  163.1361 C.2     1  UNL1        0.2708
     15 O         143.7334  139.0671  162.7393 O.2     1  UNL1       -0.2707
     16 C         141.6869  138.7170  164.3011 C.3     1  UNL1        0.2897
     17 O         140.2818  139.0609  164.6979 O.3     1  UNL1       -0.4642
     18 H         141.9857  140.9040  161.6035 H       1  UNL1        0.1551
     19 C         140.6742  145.5457  162.4534 C.3     1  UNL1        0.0916
     20 N         140.7770  144.6101  163.6214 N.3     1  UNL1       -0.2712
     21 C         139.6394  144.4946  164.5922 C.3     1  UNL1        0.0757
     22 C         139.7423  143.5590  165.7601 C.3     1  UNL1        0.0577
     23 C         140.9827  142.7390  165.9573 C.3     1  UNL1        0.1399
     24 C         142.1203  142.8546  164.9865 C.3     1  UNL1        0.0577
     25 C         142.0175  143.7901  163.8186 C.3     1  UNL1        0.0757
     26 C         142.1540  141.8601  166.2825 C.3     1  UNL1        0.0695
     27 C         141.8275  141.0960  167.5314 C.ar    1  UNL1        0.0175
     28 C         142.6030  140.0824  168.3195 C.ar    1  UNL1        0.0285
     29 C         142.0056  139.4755  169.5543 C.ar    1  UNL1        0.1400
     30 F         142.7811  138.4620  170.3425 F       1  UNL1       -0.2042
     31 C         140.6327  139.8822  170.0010 C.ar    1  UNL1        0.0327
     32 C         139.8571  140.8958  169.2129 C.ar    1  UNL1        0.0389
     33 C         140.4545  141.5027  167.9780 C.ar    1  UNL1        0.1344
     34 O         139.9324  142.5181  167.0053 O.3     1  UNL1       -0.4825
@<TRIPOS>BOND
     1     2     1    1
     2     2     5    1
     3     5     6    1
     4     6     7    1
     5     7     8   ar
     6     8     9   ar
     7     9    10   ar
     8    10    11   ar
     9    11    12   ar
    10    12    13    1
    11    13    14   am
    12    14    15    2
    13    14    16    1
    14    16    17    1
    15     2    19    1
    16    19    20    1
    17    20    21    1
    18    21    22    1
    19    22    23    1
    20    23    24    1
    21    24    25    1
    22    23    26    1
    23    26    27    1
    24    27    28   ar
    25    28    29   ar
    26    29    30    1
    27    29    31   ar
    28    31    32   ar
    29    32    33   ar
    30    33    34    1
    31    12     7   ar
    32    25    20    1
    33    33    27   ar
    34    17    11    1
    35    34    23    1
    36     1     3    1
    37     1     4    1
    38    13    18    1
@<TRIPOS>MOLECULE
*****
 34 38 0 0 0
SMALL
GASTEIGER

@<TRIPOS>ATOM
      1 N         140.5147  141.0439  159.5250 N.3     1  UNL1       -0.3181
      2 C         139.2419  141.1707  160.3085 C.3     1  UNL1        0.1112
      3 H         140.6572  141.8872  158.9692 H       1  UNL1        0.1190
      4 H         140.4540  140.2352  158.9064 H       1  UNL1        0.1190
      5 C         138.4083  142.4121  160.1894 C.3     1  UNL1        0.2222
      6 O         138.8497  143.6791  160.8601 O.3     1  UNL1       -0.4726
      7 C         139.0066  143.7229  162.3512 C.ar    1  UNL1        0.1549
      8 C         137.8196  144.0104  163.2221 C.ar    1  UNL1        0.0384
      9 C         137.9766  144.0543  164.7133 C.ar    1  UNL1        0.0063
     10 C         139.3204  143.8107  165.3334 C.ar    1  UNL1        0.0384
     11 C         140.5074  143.5232  164.4625 C.ar    1  UNL1        0.1556
     12 C         140.3505  143.4793  162.9714 C.ar    1  UNL1        0.1192
     13 N         141.5374  143.1918  162.1005 N.am    1  UNL1       -0.2761
     14 C         142.8813  142.9482  162.7207 C.2     1  UNL1        0.2708
     15 O         144.0682  142.6607  161.8498 O.2     1  UNL1       -0.2707
     16 C         143.0382  142.9920  164.2118 C.3     1  UNL1        0.2897
     17 O         141.8512  143.2795  165.0827 O.3     1  UNL1       -0.4642
     18 H         141.4344  143.1630  161.1218 H       1  UNL1        0.1551
     19 C         138.8026  140.0561  161.2112 C.3     1  UNL1        0.0916
     20 N         139.2253  140.0457  162.6504 N.3     1  UNL1       -0.2712
     21 C         138.2098  140.2672  163.7319 C.3     1  UNL1        0.0757
     22 C         138.6325  140.2568  165.1710 C.3     1  UNL1        0.0577
     23 C         140.0706  140.0249  165.5287 C.3     1  UNL1        0.1399
     24 C         141.0861  139.8034  164.4472 C.3     1  UNL1        0.0577
     25 C         140.6634  139.8138  163.0080 C.3     1  UNL1        0.0757
     26 C         141.4652  139.8070  166.0365 C.3     1  UNL1        0.0695
     27 C         141.4294  139.8780  167.5345 C.ar    1  UNL1        0.0175
     28 C         142.5037  139.7381  168.5719 C.ar    1  UNL1        0.0285
     29 C         142.1615  139.8600  170.0272 C.ar    1  UNL1        0.1400
     30 F         143.2358  139.7201  171.0646 F       1  UNL1       -0.2042
     31 C         140.7449  140.1218  170.4452 C.ar    1  UNL1        0.0327
     32 C         139.6705  140.2617  169.4077 C.ar    1  UNL1        0.0389
     33 C         140.0127  140.1398  167.9524 C.ar    1  UNL1        0.1344
     34 O         139.1730  140.2306  166.7128 O.3     1  UNL1       -0.4825
@<TRIPOS>BOND
     1     2     1    1
     2     2     5    1
     3     5     6    1
     4     6     7    1
     5     7     8   ar
     6     8     9   ar
     7     9    10   ar
     8    10    11   ar
     9    11    12   ar
    10    12    13    1
    11    13    14   am
    12    14    15    2
    13    14    16    1
    14    16    17    1
    15     2    19    1
    16    19    20    1
    17    20    21    1
    18    21    22    1
    19    22    23    1
    20    23    24    1
    21    24    25    1
    22    23    26    1
    23    26    27    1
    24    27    28   ar
    25    28    29   ar
    26    29    30    1
    27    29    31   ar
    28    31    32   ar
    29    32    33   ar
    30    33    34    1
    31    12     7   ar
    32    25    20    1
    33    33    27   ar
    34    17    11    1
    35    34    23    1
    36     1     3    1
    37     1     4    1
    38    13    18    1
@<TRIPOS>MOLECULE
*****
 34 38 0 0 0
SMALL
GASTEIGER

@<TRIPOS>ATOM
      1 N         136.9626  139.2880  161.0806 N.3     1  UNL1       -0.3181
      2 C         137.7626  140.4747  161.5297 C.3     1  UNL1        0.1112
      3 H         137.3443  138.9326  160.2040 H       1  UNL1        0.1190
      4 H         135.9913  139.5660  160.9406 H       1  UNL1        0.1190
      5 C         138.9232  140.9514  160.7076 C.3     1  UNL1        0.2222
      6 O         140.1427  140.0903  160.5615 O.3     1  UNL1       -0.4726
      7 C         140.7147  139.3909  161.7588 C.ar    1  UNL1        0.1549
      8 C         140.3094  137.9801  162.0679 C.ar    1  UNL1        0.0384
      9 C         140.8814  137.2807  163.2653 C.ar    1  UNL1        0.0063
     10 C         141.8587  137.9919  164.1535 C.ar    1  UNL1        0.0384
     11 C         142.2640  139.4027  163.8444 C.ar    1  UNL1        0.1556
     12 C         141.6920  140.1021  162.6471 C.ar    1  UNL1        0.1192
     13 N         142.0974  141.5129  162.3380 N.am    1  UNL1       -0.2761
     14 C         143.0747  142.2242  163.2262 C.2     1  UNL1        0.2708
     15 O         143.4800  143.6349  162.9171 O.2     1  UNL1       -0.2707
     16 C         143.6466  141.5247  164.4235 C.3     1  UNL1        0.2897
     17 O         143.2413  140.1140  164.7326 O.3     1  UNL1       -0.4642
     18 H         141.7220  141.9720  161.5522 H       1  UNL1        0.1551
     19 C         137.4021  141.1847  162.8008 C.3     1  UNL1        0.0916
     20 N         138.3395  141.1496  163.9714 N.3     1  UNL1       -0.2712
     21 C         139.1846  142.3468  164.2917 C.3     1  UNL1        0.0757
     22 C         140.1219  142.3116  165.4622 C.3     1  UNL1        0.0577
     23 C         140.2141  141.0793  166.3124 C.3     1  UNL1        0.1399
     24 C         139.3690  139.8822  165.9922 C.3     1  UNL1        0.0577
     25 C         138.4317  139.9173  164.8217 C.3     1  UNL1        0.0757
     26 C         140.4134  139.9239  167.2480 C.3     1  UNL1        0.0695
     27 C         141.4393  140.3239  168.2668 C.ar    1  UNL1        0.0175
     28 C         142.0337  139.5922  169.4334 C.ar    1  UNL1        0.0285
     29 C         143.0628  140.2631  170.2941 C.ar    1  UNL1        0.1400
     30 F         143.6572  139.5313  171.4608 F       1  UNL1       -0.2042
     31 C         143.4975  141.6657  169.9882 C.ar    1  UNL1        0.0327
     32 C         142.9031  142.3975  168.8214 C.ar    1  UNL1        0.0389
     33 C         141.8739  141.7266  167.9607 C.ar    1  UNL1        0.1344
     34 O         141.1168  142.1934  166.7529 O.3     1  UNL1       -0.4825
@<TRIPOS>BOND
     1     2     1    1
     2     2     5    1
     3     5     6    1
     4     6     7    1
     5     7     8   ar
     6     8     9   ar
     7     9    10   ar
     8    10    11   ar
     9    11    12   ar
    10    12    13    1
    11    13    14   am
    12    14    15    2
    13    14    16    1
    14    16    17    1
    15     2    19    1
    16    19    20    1
    17    20    21    1
    18    21    22    1
    19    22    23    1
    20    23    24    1
    21    24    25    1
    22    23    26    1
    23    26    27    1
    24    27    28   ar
    25    28    29   ar
    26    29    30    1
    27    29    31   ar
    28    31    32   ar
    29    32    33   ar
    30    33    34    1
    31    12     7   ar
    32    25    20    1
    33    33    27   ar
    34    17    11    1
    35    34    23    1
    36     1     3    1
    37     1     4    1
    38    13    18    1
@<TRIPOS>MOLECULE
*****
 34 38 0 0 0
SMALL
GASTEIGER

@<TRIPOS>ATOM
      1 N         140.1036  139.8514  158.6300 N.3     1  UNL1       -0.3181
      2 C         140.4108  138.9623  159.7984 C.3     1  UNL1        0.1112
      3 H         139.1369  139.7076  158.3382 H       1  UNL1        0.1190
      4 H         140.7293  139.6252  157.8569 H       1  UNL1        0.1190
      5 C         139.3525  138.0513  160.3463 C.3     1  UNL1        0.2222
      6 O         138.2335  138.6130  161.1722 O.3     1  UNL1       -0.4726
      7 C         138.4136  138.8029  162.6492 C.ar    1  UNL1        0.1549
      8 C         138.6470  137.6152  163.5351 C.ar    1  UNL1        0.0384
      9 C         138.8271  137.8051  165.0121 C.ar    1  UNL1        0.0063
     10 C         138.7740  139.1827  165.6031 C.ar    1  UNL1        0.0384
     11 C         138.5407  140.3704  164.7172 C.ar    1  UNL1        0.1556
     12 C         138.3605  140.1805  163.2403 C.ar    1  UNL1        0.1192
     13 N         138.1272  141.3683  162.3543 N.am    1  UNL1       -0.2761
     14 C         138.0740  142.7459  162.9454 C.2     1  UNL1        0.2708
     15 O         137.8407  143.9336  162.0594 O.2     1  UNL1       -0.2707
     16 C         138.2542  142.9357  164.4223 C.3     1  UNL1        0.2897
     17 O         138.4876  141.7480  165.3082 O.3     1  UNL1       -0.4642
     18 H         138.0089  141.2436  161.3849 H       1  UNL1        0.1551
     19 C         141.7762  138.9843  160.4190 C.3     1  UNL1        0.0916
     20 N         141.9338  139.3155  161.8735 N.3     1  UNL1       -0.2712
     21 C         141.8797  140.7441  162.3275 C.3     1  UNL1        0.0757
     22 C         142.0372  141.0752  163.7819 C.3     1  UNL1        0.0577
     23 C         142.2489  139.9778  164.7824 C.3     1  UNL1        0.1399
     24 C         142.3030  138.5492  164.3284 C.3     1  UNL1        0.0577
     25 C         142.1455  138.2181  162.8739 C.3     1  UNL1        0.0757
     26 C         142.4657  138.9926  165.8925 C.3     1  UNL1        0.0695
     27 C         142.5681  139.7583  167.1784 C.ar    1  UNL1        0.0175
     28 C         142.7813  139.3159  168.5957 C.ar    1  UNL1        0.0285
     29 C         142.8411  140.3319  169.6976 C.ar    1  UNL1        0.1400
     30 F         143.0543  139.8896  171.1149 F       1  UNL1       -0.2042
     31 C         142.6876  141.7903  169.3822 C.ar    1  UNL1        0.0327
     32 C         142.4744  142.2327  167.9648 C.ar    1  UNL1        0.0389
     33 C         142.4147  141.2167  166.8629 C.ar    1  UNL1        0.1344
     34 O         142.2174  141.3524  165.3821 O.3     1  UNL1       -0.4825
@<TRIPOS>BOND
     1     2     1    1
     2     2     5    1
     3     5     6    1
     4     6     7    1
     5     7     8   ar
     6     8     9   ar
     7     9    10   ar
     8    10    11   ar
     9    11    12   ar
    10    12    13    1
    11    13    14   am
    12    14    15    2
    13    14    16    1
    14    16    17    1
    15     2    19    1
    16    19    20    1
    17    20    21    1
    18    21    22    1
    19    22    23    1
    20    23    24    1
    21    24    25    1
    22    23    26    1
    23    26    27    1
    24    27    28   ar
    25    28    29   ar
    26    29    30    1
    27    29    31   ar
    28    31    32   ar
    29    32    33   ar
    30    33    34    1
    31    12     7   ar
    32    25    20    1
    33    33    27   ar
    34    17    11    1
    35    34    23    1
    36     1     3    1
    37     1     4    1
    38    13    18    1
@<TRIPOS>MOLECULE
*****
 34 38 0 0 0
SMALL
GASTEIGER

@<TRIPOS>ATOM
      1 N         143.2562  137.1433  160.9538 N.3     1  UNL1       -0.3181
      2 C         142.0565  137.9190  161.4110 C.3     1  UNL1        0.1112
      3 H         143.5886  137.5225  160.0672 H       1  UNL1        0.1190
      4 H         143.0006  136.1636  160.8301 H       1  UNL1        0.1190
      5 C         141.5384  139.0567  160.5820 C.3     1  UNL1        0.2222
      6 O         142.3571  140.3036  160.4245 O.3     1  UNL1       -0.4726
      7 C         143.0531  140.8989  161.6124 C.ar    1  UNL1        0.1549
      8 C         144.4762  140.5300  161.9105 C.ar    1  UNL1        0.0384
      9 C         145.1722  141.1253  163.0985 C.ar    1  UNL1        0.0063
     10 C         144.4451  142.0894  163.9883 C.ar    1  UNL1        0.0384
     11 C         143.0221  142.4583  163.6902 C.ar    1  UNL1        0.1556
     12 C         142.3261  141.8631  162.5023 C.ar    1  UNL1        0.1192
     13 N         140.9031  142.2319  162.2042 N.am    1  UNL1       -0.2761
     14 C         140.1760  143.1961  163.0940 C.2     1  UNL1        0.2708
     15 O         138.7530  143.5650  162.7959 O.2     1  UNL1       -0.2707
     16 C         140.8720  143.7913  164.2820 C.3     1  UNL1        0.2897
     17 O         142.2951  143.4224  164.5801 O.3     1  UNL1       -0.4642
     18 H         140.4463  141.8413  161.4245 H       1  UNL1        0.1551
     19 C         141.3750  137.5571  162.6973 C.3     1  UNL1        0.0916
     20 N         141.4566  138.4820  163.8754 N.3     1  UNL1       -0.2712
     21 C         140.2638  139.3019  164.2693 C.3     1  UNL1        0.0757
     22 C         140.3455  140.2268  165.4474 C.3     1  UNL1        0.0577
     23 C         141.6198  140.3317  166.2316 C.3     1  UNL1        0.1399
     24 C         142.8126  139.5119  165.8377 C.3     1  UNL1        0.0577
     25 C         142.7309  138.5870  164.6597 C.3     1  UNL1        0.0757
     26 C         142.8202  140.5414  167.1064 C.3     1  UNL1        0.0695
     27 C         142.4576  141.5487  168.1573 C.ar    1  UNL1        0.0175
     28 C         143.2405  142.1432  169.2902 C.ar    1  UNL1        0.0285
     29 C         142.5989  143.1506  170.1978 C.ar    1  UNL1        0.1400
     30 F         143.3818  143.7452  171.3307 F       1  UNL1       -0.2042
     31 C         141.1746  143.5633  169.9725 C.ar    1  UNL1        0.0327
     32 C         140.3917  142.9688  168.8395 C.ar    1  UNL1        0.0389
     33 C         141.0332  141.9614  167.9319 C.ar    1  UNL1        0.1344
     34 O         140.5154  141.2093  166.7418 O.3     1  UNL1       -0.4825
@<TRIPOS>BOND
     1     2     1    1
     2     2     5    1
     3     5     6    1
     4     6     7    1
     5     7     8   ar
     6     8     9   ar
     7     9    10   ar
     8    10    11   ar
     9    11    12   ar
    10    12    13    1
    11    13    14   am
    12    14    15    2
    13    14    16    1
    14    16    17    1
    15     2    19    1
    16    19    20    1
    17    20    21    1
    18    21    22    1
    19    22    23    1
    20    23    24    1
    21    24    25    1
    22    23    26    1
    23    26    27    1
    24    27    28   ar
    25    28    29   ar
    26    29    30    1
    27    29    31   ar
    28    31    32   ar
    29    32    33   ar
    30    33    34    1
    31    12     7   ar
    32    25    20    1
    33    33    27   ar
    34    17    11    1
    35    34    23    1
    36     1     3    1
    37     1     4    1
    38    13    18    1
@<TRIPOS>MOLECULE
*****
 34 38 0 0 0
SMALL
GASTEIGER

@<TRIPOS>ATOM
      1 N         143.7799  142.8753  159.5208 N.3     1  UNL1       -0.3181
      2 C         143.9570  142.6349  160.9908 C.3     1  UNL1        0.1112
      3 H         144.2906  142.1652  158.9962 H       1  UNL1        0.1190
      4 H         144.1397  143.7992  159.2816 H       1  UNL1        0.1190
      5 C         144.7897  141.4818  161.4672 C.3     1  UNL1        0.2222
      6 O         144.1948  140.1068  161.5405 O.3     1  UNL1       -0.4726
      7 C         143.8095  139.5262  162.8688 C.ar    1  UNL1        0.1549
      8 C         144.7521  139.6231  164.0315 C.ar    1  UNL1        0.0384
      9 C         144.3667  139.0424  165.3599 C.ar    1  UNL1        0.0063
     10 C         143.0387  138.3649  165.5254 C.ar    1  UNL1        0.0384
     11 C         142.0961  138.2681  164.3626 C.ar    1  UNL1        0.1556
     12 C         142.4814  138.8486  163.0343 C.ar    1  UNL1        0.1192
     13 N         141.5388  138.7518  161.8716 N.am    1  UNL1       -0.2761
     14 C         140.2108  138.0743  162.0371 C.2     1  UNL1        0.2708
     15 O         139.2682  137.9774  160.8743 O.2     1  UNL1       -0.2707
     16 C         139.8255  137.4937  163.3653 C.3     1  UNL1        0.2897
     17 O         140.7681  137.5906  164.5281 O.3     1  UNL1       -0.4642
     18 H         141.7917  139.1328  160.9997 H       1  UNL1        0.1551
     19 C         143.3013  143.5475  161.9844 C.3     1  UNL1        0.0916
     20 N         142.9786  143.0488  163.3618 N.3     1  UNL1       -0.2712
     21 C         143.9741  143.2141  164.4716 C.3     1  UNL1        0.0757
     22 C         143.6514  142.7154  165.8490 C.3     1  UNL1        0.0577
     23 C         142.3332  142.0515  166.1165 C.3     1  UNL1        0.1399
     24 C         141.3378  141.8862  165.0067 C.3     1  UNL1        0.0577
     25 C         141.6605  142.3848  163.6294 C.3     1  UNL1        0.0757
     26 C         141.0629  141.3710  166.5327 C.3     1  UNL1        0.0695
     27 C         141.1687  141.0447  167.9930 C.ar    1  UNL1        0.0175
     28 C         140.2214  140.3734  168.9427 C.ar    1  UNL1        0.0285
     29 C         140.6098  140.1809  170.3787 C.ar    1  UNL1        0.1400
     30 F         139.6625  139.5097  171.3284 F       1  UNL1       -0.2042
     31 C         141.9456  140.6597  170.8650 C.ar    1  UNL1        0.0327
     32 C         142.8930  141.3310  169.9153 C.ar    1  UNL1        0.0389
     33 C         142.5046  141.5235  168.4793 C.ar    1  UNL1        0.1344
     34 O         143.2242  142.1457  167.3196 O.3     1  UNL1       -0.4825
@<TRIPOS>BOND
     1     2     1    1
     2     2     5    1
     3     5     6    1
     4     6     7    1
     5     7     8   ar
     6     8     9   ar
     7     9    10   ar
     8    10    11   ar
     9    11    12   ar
    10    12    13    1
    11    13    14   am
    12    14    15    2
    13    14    16    1
    14    16    17    1
    15     2    19    1
    16    19    20    1
    17    20    21    1
    18    21    22    1
    19    22    23    1
    20    23    24    1
    21    24    25    1
    22    23    26    1
    23    26    27    1
    24    27    28   ar
    25    28    29   ar
    26    29    30    1
    27    29    31   ar
    28    31    32   ar
    29    32    33   ar
    30    33    34    1
    31    12     7   ar
    32    25    20    1
    33    33    27   ar
    34    17    11    1
    35    34    23    1
    36     1     3    1
    37     1     4    1
    38    13    18    1
