@<TRIPOS>MOLECULE
*****
 30 32 0 0 0
SMALL
GASTEIGER

@<TRIPOS>ATOM
      1 C         139.3853  139.1540  165.0019 C.ar    1  UNL1        0.0480
      2 C         139.1542  137.8257  164.3445 C.ar    1  UNL1        0.0160
      3 C         139.6312  137.5899  162.9421 C.ar    1  UNL1        0.0189
      4 C         140.3394  138.6823  162.1970 C.ar    1  UNL1        0.0670
      5 C         140.5705  140.0106  162.8544 C.ar    1  UNL1        0.0189
      6 C         140.0935  140.2464  164.2569 C.ar    1  UNL1        0.0160
      7 N         140.8164  138.4464  160.7946 N.ar    1  UNL1       -0.2729
      8 C         139.8738  138.6259  159.6416 C.ar    1  UNL1        0.0860
      9 C         140.3509  138.3901  158.2392 C.ar    1  UNL1        0.0561
     10 C         141.7704  137.9747  157.9897 C.ar    1  UNL1        0.1453
     11 C         142.7130  137.7953  159.1427 C.ar    1  UNL1        0.0980
     12 C         142.2360  138.0311  160.5451 C.ar    1  UNL1        0.2679
     13 O         143.1786  137.8517  161.6981 O.2     1  UNL1       -0.2665
     14 O         142.2474  137.7389  156.5873 O.3     1  UNL1       -0.4704
     15 C         143.3082  136.7130  156.3185 C.3     1  UNL1        0.2320
     16 C         142.9438  135.2601  156.2397 C.ar    1  UNL1        0.0212
     17 C         141.8433  134.8115  155.3244 C.ar    1  UNL1       -0.0007
     18 C         141.4788  133.3586  155.2457 C.ar    1  UNL1       -0.0002
     19 C         142.2148  132.3543  156.0823 C.ar    1  UNL1       -0.0000
     20 C         143.3152  132.8030  156.9975 C.ar    1  UNL1       -0.0002
     21 C         143.6797  134.2559  157.0763 C.ar    1  UNL1       -0.0007
     22 N         138.9083  139.3899  166.4043 N.pl3   1  UNL1       -0.3044
     23 C         137.7736  138.5793  166.9569 C.3     1  UNL1        0.1122
     24 C         139.5660  140.4363  167.2542 C.3     1  UNL1        0.1081
     25 C         139.6629  140.2447  168.7388 C.3     1  UNL1        0.0938
     26 N         140.7845  140.8807  169.5055 N.3     1  UNL1       -0.2712
     27 C         140.4116  143.4404  169.7477 C.3     1  UNL1        0.0188
     28 C         140.5186  142.0789  170.3678 C.3     1  UNL1        0.0722
     29 C         142.1718  140.3186  169.4097 C.3     1  UNL1        0.0722
     30 C         142.4754  138.9680  169.9877 C.3     1  UNL1        0.0188
@<TRIPOS>BOND
     1    27    28    1
     2    28    26    1
     3    26    29    1
     4    29    30    1
     5    26    25    1
     6    25    24    1
     7    24    22    1
     8    22    23    1
     9    22     1    1
    10     1     2   ar
    11     2     3   ar
    12     3     4   ar
    13     4     7    1
    14     7     8   ar
    15     8     9   ar
    16     9    10   ar
    17    10    14    1
    18    14    15    1
    19    15    16    1
    20    16    17   ar
    21    17    18   ar
    22    18    19   ar
    23    19    20   ar
    24    20    21   ar
    25    10    11   ar
    26    11    12   ar
    27    12    13    2
    28     4     5   ar
    29     5     6   ar
    30     6     1   ar
    31    12     7   ar
    32    21    16   ar
@<TRIPOS>MOLECULE
*****
 30 32 0 0 0
SMALL
GASTEIGER

@<TRIPOS>ATOM
      1 C         139.4067  139.1500  165.2050 C.ar    1  UNL1        0.0480
      2 C         139.9699  140.2940  164.4151 C.ar    1  UNL1        0.0160
      3 C         140.4896  140.0631  163.0271 C.ar    1  UNL1        0.0189
      4 C         140.4462  138.6883  162.4290 C.ar    1  UNL1        0.0670
      5 C         139.8830  137.5442  163.2189 C.ar    1  UNL1        0.0189
      6 C         139.3633  137.7751  164.6069 C.ar    1  UNL1        0.0160
      7 N         140.9660  138.4574  161.0410 N.ar    1  UNL1       -0.2729
      8 C         140.0612  138.6481  159.8599 C.ar    1  UNL1        0.0860
      9 C         140.5810  138.4172  158.4719 C.ar    1  UNL1        0.0561
     10 C         142.0056  137.9957  158.2650 C.ar    1  UNL1        0.1453
     11 C         142.9104  137.8050  159.4461 C.ar    1  UNL1        0.0980
     12 C         142.3906  138.0359  160.8341 C.ar    1  UNL1        0.2679
     13 O         143.2955  137.8452  162.0152 O.2     1  UNL1       -0.2665
     14 O         142.5254  137.7648  156.8770 O.3     1  UNL1       -0.4704
     15 C         141.8406  136.7827  155.9734 C.3     1  UNL1        0.2320
     16 C         142.1175  135.3152  156.1137 C.ar    1  UNL1        0.0212
     17 C         141.3479  134.3248  155.2909 C.ar    1  UNL1       -0.0007
     18 C         141.6247  132.8572  155.4311 C.ar    1  UNL1       -0.0002
     19 C         142.6711  132.3801  156.3942 C.ar    1  UNL1       -0.0000
     20 C         143.4406  133.3704  157.2169 C.ar    1  UNL1       -0.0002
     21 C         143.1638  134.8380  157.0767 C.ar    1  UNL1       -0.0007
     22 N         138.8869  139.3808  166.5929 N.pl3   1  UNL1       -0.3044
     23 C         137.7075  138.5996  167.0918 C.3     1  UNL1        0.1122
     24 C         139.5464  140.3929  167.4821 C.3     1  UNL1        0.1081
     25 C         140.5875  139.9577  168.4705 C.3     1  UNL1        0.0938
     26 N         142.0268  140.3192  168.2519 N.3     1  UNL1       -0.2712
     27 C         142.9496  138.7884  166.3664 C.3     1  UNL1        0.0188
     28 C         142.6424  140.1587  166.8934 C.3     1  UNL1        0.0722
     29 C         142.8505  140.8411  169.3916 C.3     1  UNL1        0.0722
     30 C         143.0045  140.0253  170.6410 C.3     1  UNL1        0.0188
@<TRIPOS>BOND
     1    27    28    1
     2    28    26    1
     3    26    29    1
     4    29    30    1
     5    26    25    1
     6    25    24    1
     7    24    22    1
     8    22    23    1
     9    22     1    1
    10     1     2   ar
    11     2     3   ar
    12     3     4   ar
    13     4     7    1
    14     7     8   ar
    15     8     9   ar
    16     9    10   ar
    17    10    14    1
    18    14    15    1
    19    15    16    1
    20    16    17   ar
    21    17    18   ar
    22    18    19   ar
    23    19    20   ar
    24    20    21   ar
    25    10    11   ar
    26    11    12   ar
    27    12    13    2
    28     4     5   ar
    29     5     6   ar
    30     6     1   ar
    31    12     7   ar
    32    21    16   ar
@<TRIPOS>MOLECULE
*****
 30 32 0 0 0
SMALL
GASTEIGER

@<TRIPOS>ATOM
      1 C         139.4436  139.1558  165.0515 C.ar    1  UNL1        0.0480
      2 C         139.3782  137.7824  164.4521 C.ar    1  UNL1        0.0160
      3 C         139.8796  137.5478  163.0580 C.ar    1  UNL1        0.0189
      4 C         140.4464  138.6867  162.2633 C.ar    1  UNL1        0.0670
      5 C         140.5118  140.0601  162.8627 C.ar    1  UNL1        0.0189
      6 C         140.0104  140.2947  164.2568 C.ar    1  UNL1        0.0160
      7 N         140.9478  138.4522  160.8691 N.ar    1  UNL1       -0.2729
      8 C         142.3539  137.9793  160.6474 C.ar    1  UNL1        0.0860
      9 C         142.8553  137.7448  159.2533 C.ar    1  UNL1        0.0561
     10 C         141.9506  137.9831  158.0809 C.ar    1  UNL1        0.1453
     11 C         140.5444  138.4559  158.3026 C.ar    1  UNL1        0.0980
     12 C         140.0430  138.6905  159.6967 C.ar    1  UNL1        0.2679
     13 O         138.6368  139.1633  159.9184 O.2     1  UNL1       -0.2665
     14 O         142.4519  137.7485  156.6868 O.3     1  UNL1       -0.4704
     15 C         141.8198  136.6918  155.8302 C.3     1  UNL1        0.2320
     16 C         142.1777  135.2492  156.0324 C.ar    1  UNL1        0.0212
     17 C         143.3482  134.8807  156.8951 C.ar    1  UNL1       -0.0007
     18 C         143.7060  133.4381  157.0973 C.ar    1  UNL1       -0.0002
     19 C         142.8934  132.3640  156.4369 C.ar    1  UNL1       -0.0000
     20 C         141.7229  132.7326  155.5742 C.ar    1  UNL1       -0.0002
     21 C         141.3651  134.1752  155.3720 C.ar    1  UNL1       -0.0007
     22 N         138.9422  139.3903  166.4457 N.pl3   1  UNL1       -0.3044
     23 C         137.7654  138.6152  166.9598 C.3     1  UNL1        0.1122
     24 C         139.6176  140.4000  167.3256 C.3     1  UNL1        0.1081
     25 C         140.8841  140.0406  168.0444 C.3     1  UNL1        0.0938
     26 N         142.1924  140.6199  167.5939 N.3     1  UNL1       -0.2712
     27 C         141.9535  142.6618  169.1824 C.3     1  UNL1        0.0188
     28 C         142.8141  141.7515  168.3574 C.3     1  UNL1        0.0722
     29 C         142.8789  140.0676  166.3800 C.3     1  UNL1        0.0722
     30 C         143.0421  138.5850  166.2201 C.3     1  UNL1        0.0188
@<TRIPOS>BOND
     1    27    28    1
     2    28    26    1
     3    26    29    1
     4    29    30    1
     5    26    25    1
     6    25    24    1
     7    24    22    1
     8    22    23    1
     9    22     1    1
    10     1     2   ar
    11     2     3   ar
    12     3     4   ar
    13     4     7    1
    14     7     8   ar
    15     8     9   ar
    16     9    10   ar
    17    10    14    1
    18    14    15    1
    19    15    16    1
    20    16    17   ar
    21    17    18   ar
    22    18    19   ar
    23    19    20   ar
    24    20    21   ar
    25    10    11   ar
    26    11    12   ar
    27    12    13    2
    28     4     5   ar
    29     5     6   ar
    30     6     1   ar
    31    12     7   ar
    32    21    16   ar
@<TRIPOS>MOLECULE
*****
 30 32 0 0 0
SMALL
GASTEIGER

@<TRIPOS>ATOM
      1 C         139.9226  144.9088  157.5131 C.ar    1  UNL1        0.0480
      2 C         140.5368  145.8533  158.5033 C.ar    1  UNL1        0.0160
      3 C         140.6738  145.4481  159.9411 C.ar    1  UNL1        0.0189
      4 C         140.1965  144.0983  160.3886 C.ar    1  UNL1        0.0670
      5 C         139.5823  143.1538  159.3984 C.ar    1  UNL1        0.0189
      6 C         139.4453  143.5590  157.9607 C.ar    1  UNL1        0.0160
      7 N         140.3335  143.6931  161.8263 N.ar    1  UNL1       -0.2729
      8 C         141.5944  143.0355  162.3033 C.ar    1  UNL1        0.0860
      9 C         141.7314  142.6303  163.7411 C.ar    1  UNL1        0.0561
     10 C         140.6074  142.8826  164.7017 C.ar    1  UNL1        0.1453
     11 C         139.3464  143.5402  164.2247 C.ar    1  UNL1        0.0980
     12 C         139.2095  143.9454  162.7870 C.ar    1  UNL1        0.2679
     13 O         137.9485  144.6030  162.3100 O.2     1  UNL1       -0.2665
     14 O         140.7443  142.4774  166.1395 O.3     1  UNL1       -0.4704
     15 C         141.2064  141.0936  166.4879 C.3     1  UNL1        0.2320
     16 C         140.3811  139.9053  166.0917 C.ar    1  UNL1        0.0212
     17 C         138.9786  139.7619  166.6039 C.ar    1  UNL1       -0.0007
     18 C         138.1533  138.5736  166.2077 C.ar    1  UNL1       -0.0002
     19 C         138.7306  137.5288  165.2993 C.ar    1  UNL1       -0.0000
     20 C         140.1331  137.6723  164.7871 C.ar    1  UNL1       -0.0002
     21 C         140.9584  138.8605  165.1833 C.ar    1  UNL1       -0.0007
     22 N         139.7856  145.3140  156.0754 N.pl3   1  UNL1       -0.3044
     23 C         139.4104  144.2943  155.0413 C.3     1  UNL1        0.1122
     24 C         140.0239  146.7388  155.6718 C.3     1  UNL1        0.1081
     25 C         138.8608  147.6429  155.3893 C.3     1  UNL1        0.0938
     26 N         139.0711  149.1242  155.2815 N.3     1  UNL1       -0.2712
     27 C         139.9356  149.0432  152.8329 C.3     1  UNL1        0.0188
     28 C         139.9364  149.6814  154.1903 C.3     1  UNL1        0.0722
     29 C         138.4162  150.0482  156.2650 C.3     1  UNL1        0.0722
     30 C         138.1171  149.5732  157.6561 C.3     1  UNL1        0.0188
@<TRIPOS>BOND
     1    27    28    1
     2    28    26    1
     3    26    29    1
     4    29    30    1
     5    26    25    1
     6    25    24    1
     7    24    22    1
     8    22    23    1
     9    22     1    1
    10     1     2   ar
    11     2     3   ar
    12     3     4   ar
    13     4     7    1
    14     7     8   ar
    15     8     9   ar
    16     9    10   ar
    17    10    14    1
    18    14    15    1
    19    15    16    1
    20    16    17   ar
    21    17    18   ar
    22    18    19   ar
    23    19    20   ar
    24    20    21   ar
    25    10    11   ar
    26    11    12   ar
    27    12    13    2
    28     4     5   ar
    29     5     6   ar
    30     6     1   ar
    31    12     7   ar
    32    21    16   ar
@<TRIPOS>MOLECULE
*****
 30 32 0 0 0
SMALL
GASTEIGER

@<TRIPOS>ATOM
      1 C         142.0138  137.3900  156.9709 C.ar    1  UNL1        0.0480
      2 C         142.6746  138.0448  158.1475 C.ar    1  UNL1        0.0160
      3 C         141.8477  138.7879  159.1545 C.ar    1  UNL1        0.0189
      4 C         140.3600  138.8762  158.9849 C.ar    1  UNL1        0.0670
      5 C         139.6991  138.2214  157.8082 C.ar    1  UNL1        0.0189
      6 C         140.5260  137.4783  156.8013 C.ar    1  UNL1        0.0160
      7 N         139.5331  139.6194  159.9918 N.ar    1  UNL1       -0.2729
      8 C         139.0349  140.9997  159.6813 C.ar    1  UNL1        0.0860
      9 C         138.2080  141.7428  160.6883 C.ar    1  UNL1        0.0561
     10 C         137.8793  141.1056  162.0058 C.ar    1  UNL1        0.1453
     11 C         138.3775  139.7253  162.3163 C.ar    1  UNL1        0.0980
     12 C         139.2044  138.9822  161.3094 C.ar    1  UNL1        0.2679
     13 O         139.7026  137.6018  161.6200 O.2     1  UNL1       -0.2665
     14 O         137.0524  141.8488  163.0128 O.3     1  UNL1       -0.4704
     15 C         137.7224  142.6191  164.1116 C.3     1  UNL1        0.2320
     16 C         138.8954  143.5012  163.8018 C.ar    1  UNL1        0.0212
     17 C         138.7224  144.6921  162.9062 C.ar    1  UNL1       -0.0007
     18 C         139.8954  145.5742  162.5964 C.ar    1  UNL1       -0.0002
     19 C         141.2414  145.2655  163.1822 C.ar    1  UNL1       -0.0000
     20 C         141.4143  144.0747  164.0778 C.ar    1  UNL1       -0.0002
     21 C         140.2413  143.1926  164.3876 C.ar    1  UNL1       -0.0007
     22 N         142.8407  136.6468  155.9639 N.pl3   1  UNL1       -0.3044
     23 C         142.7552  137.0074  154.5104 C.3     1  UNL1        0.1122
     24 C         143.7530  135.5431  156.4104 C.3     1  UNL1        0.1081
     25 C         143.2055  134.3897  157.1976 C.3     1  UNL1        0.0938
     26 N         142.7593  133.1440  156.4910 N.3     1  UNL1       -0.2712
     27 C         144.8450  131.6145  156.2452 C.3     1  UNL1        0.0188
     28 C         143.4535  131.8412  156.7572 C.3     1  UNL1        0.0722
     29 C         141.6190  133.2011  155.5182 C.3     1  UNL1        0.0722
     30 C         141.7812  132.6355  154.1383 C.3     1  UNL1        0.0188
@<TRIPOS>BOND
     1    27    28    1
     2    28    26    1
     3    26    29    1
     4    29    30    1
     5    26    25    1
     6    25    24    1
     7    24    22    1
     8    22    23    1
     9    22     1    1
    10     1     2   ar
    11     2     3   ar
    12     3     4   ar
    13     4     7    1
    14     7     8   ar
    15     8     9   ar
    16     9    10   ar
    17    10    14    1
    18    14    15    1
    19    15    16    1
    20    16    17   ar
    21    17    18   ar
    22    18    19   ar
    23    19    20   ar
    24    20    21   ar
    25    10    11   ar
    26    11    12   ar
    27    12    13    2
    28     4     5   ar
    29     5     6   ar
    30     6     1   ar
    31    12     7   ar
    32    21    16   ar
@<TRIPOS>MOLECULE
*****
 30 32 0 0 0
SMALL
GASTEIGER

@<TRIPOS>ATOM
      1 C         140.5870  143.5439  163.6637 C.ar    1  UNL1        0.0480
      2 C         141.8328  142.7168  163.5462 C.ar    1  UNL1        0.0160
      3 C         142.3226  141.9272  164.7238 C.ar    1  UNL1        0.0189
      4 C         141.5667  141.9648  166.0188 C.ar    1  UNL1        0.0670
      5 C         140.3209  142.7919  166.1362 C.ar    1  UNL1        0.0189
      6 C         139.8310  143.5814  164.9587 C.ar    1  UNL1        0.0160
      7 N         142.0565  141.1752  167.1963 N.ar    1  UNL1       -0.2729
      8 C         142.5351  141.8846  168.4282 C.ar    1  UNL1        0.0860
      9 C         143.0250  141.0950  169.6058 C.ar    1  UNL1        0.0561
     10 C         143.0362  139.5961  169.5514 C.ar    1  UNL1        0.1453
     11 C         142.5576  138.8867  168.3195 C.ar    1  UNL1        0.0980
     12 C         142.0678  139.6763  167.1420 C.ar    1  UNL1        0.2679
     13 O         141.5891  138.9668  165.9100 O.2     1  UNL1       -0.2665
     14 O         143.5261  138.8065  170.7290 O.3     1  UNL1       -0.4704
     15 C         143.6673  137.3167  170.6267 C.3     1  UNL1        0.2320
     16 C         144.6013  136.5870  171.5460 C.ar    1  UNL1        0.0212
     17 C         144.4564  135.1068  171.7419 C.ar    1  UNL1       -0.0007
     18 C         145.3904  134.3771  172.6613 C.ar    1  UNL1       -0.0002
     19 C         146.4692  135.1275  173.3846 C.ar    1  UNL1       -0.0000
     20 C         146.6140  136.6075  173.1887 C.ar    1  UNL1       -0.0002
     21 C         145.6800  137.3373  172.2694 C.ar    1  UNL1       -0.0007
     22 N         140.0971  144.3335  162.4861 N.pl3   1  UNL1       -0.3044
     23 C         140.3238  145.8152  162.4299 C.3     1  UNL1        0.1122
     24 C         139.3806  143.6414  161.3647 C.3     1  UNL1        0.1081
     25 C         138.0961  142.9141  161.6312 C.3     1  UNL1        0.0938
     26 N         138.0056  141.4370  161.3857 N.3     1  UNL1       -0.2712
     27 C         139.0360  139.6817  159.7711 C.3     1  UNL1        0.0188
     28 C         138.1840  140.8950  159.9984 C.3     1  UNL1        0.0722
     29 C         137.7369  140.5020  162.5274 C.3     1  UNL1        0.0722
     30 C         138.7763  140.2967  163.5893 C.3     1  UNL1        0.0188
@<TRIPOS>BOND
     1    27    28    1
     2    28    26    1
     3    26    29    1
     4    29    30    1
     5    26    25    1
     6    25    24    1
     7    24    22    1
     8    22    23    1
     9    22     1    1
    10     1     2   ar
    11     2     3   ar
    12     3     4   ar
    13     4     7    1
    14     7     8   ar
    15     8     9   ar
    16     9    10   ar
    17    10    14    1
    18    14    15    1
    19    15    16    1
    20    16    17   ar
    21    17    18   ar
    22    18    19   ar
    23    19    20   ar
    24    20    21   ar
    25    10    11   ar
    26    11    12   ar
    27    12    13    2
    28     4     5   ar
    29     5     6   ar
    30     6     1   ar
    31    12     7   ar
    32    21    16   ar
@<TRIPOS>MOLECULE
*****
 30 32 0 0 0
SMALL
GASTEIGER

@<TRIPOS>ATOM
      1 C         140.0099  144.6587  158.2203 C.ar    1  UNL1        0.0480
      2 C         139.6320  143.2865  158.6937 C.ar    1  UNL1        0.0160
      3 C         139.7549  142.9341  160.1465 C.ar    1  UNL1        0.0189
      4 C         140.2557  143.9538  161.1259 C.ar    1  UNL1        0.0670
      5 C         140.6336  145.3261  160.6525 C.ar    1  UNL1        0.0189
      6 C         140.5107  145.6785  159.1997 C.ar    1  UNL1        0.0160
      7 N         140.3786  143.6014  162.5787 N.ar    1  UNL1       -0.2729
      8 C         139.1642  143.6146  163.4590 C.ar    1  UNL1        0.0860
      9 C         139.2872  143.2621  164.9118 C.ar    1  UNL1        0.0561
     10 C         140.6245  142.8965  165.4843 C.ar    1  UNL1        0.1453
     11 C         141.8389  142.8833  164.6040 C.ar    1  UNL1        0.0980
     12 C         141.7160  143.2357  163.1512 C.ar    1  UNL1        0.2679
     13 O         142.9305  143.2226  162.2709 O.2     1  UNL1       -0.2665
     14 O         140.7474  142.5440  166.9371 O.3     1  UNL1       -0.4704
     15 C         140.1592  141.2633  167.4506 C.3     1  UNL1        0.2320
     16 C         140.1054  140.0543  166.5643 C.ar    1  UNL1        0.0212
     17 C         138.7807  139.4652  166.1790 C.ar    1  UNL1       -0.0007
     18 C         138.7269  138.2562  165.2927 C.ar    1  UNL1       -0.0002
     19 C         139.9977  137.6364  164.7917 C.ar    1  UNL1       -0.0000
     20 C         141.3222  138.2255  165.1770 C.ar    1  UNL1       -0.0002
     21 C         141.3761  139.4345  166.0633 C.ar    1  UNL1       -0.0007
     22 N         139.8870  145.0112  156.7675 N.pl3   1  UNL1       -0.3044
     23 C         139.5929  143.9411  155.7584 C.3     1  UNL1        0.1122
     24 C         140.0581  146.4338  156.3237 C.3     1  UNL1        0.1081
     25 C         138.8757  147.2122  155.8279 C.3     1  UNL1        0.0938
     26 N         139.0687  148.5837  155.2518 N.3     1  UNL1       -0.2712
     27 C         138.1727  149.6562  157.4420 C.3     1  UNL1        0.0188
     28 C         138.5936  149.7887  156.0084 C.3     1  UNL1        0.0722
     29 C         139.7368  148.7502  153.9192 C.3     1  UNL1        0.0722
     30 C         139.8296  150.1094  153.2913 C.3     1  UNL1        0.0188
@<TRIPOS>BOND
     1    27    28    1
     2    28    26    1
     3    26    29    1
     4    29    30    1
     5    26    25    1
     6    25    24    1
     7    24    22    1
     8    22    23    1
     9    22     1    1
    10     1     2   ar
    11     2     3   ar
    12     3     4   ar
    13     4     7    1
    14     7     8   ar
    15     8     9   ar
    16     9    10   ar
    17    10    14    1
    18    14    15    1
    19    15    16    1
    20    16    17   ar
    21    17    18   ar
    22    18    19   ar
    23    19    20   ar
    24    20    21   ar
    25    10    11   ar
    26    11    12   ar
    27    12    13    2
    28     4     5   ar
    29     5     6   ar
    30     6     1   ar
    31    12     7   ar
    32    21    16   ar
@<TRIPOS>MOLECULE
*****
 30 32 0 0 0
SMALL
GASTEIGER

@<TRIPOS>ATOM
      1 C         141.9115  137.1550  156.9747 C.ar    1  UNL1        0.0480
      2 C         140.4469  137.3685  156.7317 C.ar    1  UNL1        0.0160
      3 C         139.6245  138.1303  157.7283 C.ar    1  UNL1        0.0189
      4 C         140.2667  138.6786  158.9680 C.ar    1  UNL1        0.0670
      5 C         141.7314  138.4650  159.2110 C.ar    1  UNL1        0.0189
      6 C         142.5538  137.7032  158.2144 C.ar    1  UNL1        0.0160
      7 N         139.4443  139.4403  159.9647 N.ar    1  UNL1       -0.2729
      8 C         138.8901  138.7412  161.1705 C.ar    1  UNL1        0.0860
      9 C         138.0677  139.5030  162.1671 C.ar    1  UNL1        0.0561
     10 C         137.7995  140.9639  161.9580 C.ar    1  UNL1        0.1453
     11 C         138.3537  141.6630  160.7522 C.ar    1  UNL1        0.0980
     12 C         139.1761  140.9012  159.7555 C.ar    1  UNL1        0.2679
     13 O         139.7304  141.6004  158.5497 O.2     1  UNL1       -0.2665
     14 O         136.9771  141.7257  162.9546 O.3     1  UNL1       -0.4704
     15 C         137.6289  142.3169  164.1694 C.3     1  UNL1        0.2320
     16 C         138.8407  143.1884  164.0212 C.ar    1  UNL1        0.0212
     17 C         140.1398  142.7798  164.6501 C.ar    1  UNL1       -0.0007
     18 C         141.3516  143.6513  164.5019 C.ar    1  UNL1       -0.0002
     19 C         141.2643  144.9314  163.7247 C.ar    1  UNL1       -0.0000
     20 C         139.9653  145.3399  163.0958 C.ar    1  UNL1       -0.0002
     21 C         138.7535  144.4684  163.2440 C.ar    1  UNL1       -0.0007
     22 N         142.7340  136.3932  155.9780 N.pl3   1  UNL1       -0.3044
     23 C         142.4960  136.5814  154.5091 C.3     1  UNL1        0.1122
     24 C         143.7943  135.4432  156.4504 C.3     1  UNL1        0.1081
     25 C         143.4121  134.0832  156.9547 C.3     1  UNL1        0.0938
     26 N         143.7451  132.8632  156.1479 N.3     1  UNL1       -0.2712
     27 C         141.4714  132.6515  154.9088 C.3     1  UNL1        0.0188
     28 C         142.9680  132.5522  154.9031 C.3     1  UNL1        0.0722
     29 C         144.8550  131.9543  156.5859 C.3     1  UNL1        0.0722
     30 C         145.4555  132.1081  157.9519 C.3     1  UNL1        0.0188
@<TRIPOS>BOND
     1    27    28    1
     2    28    26    1
     3    26    29    1
     4    29    30    1
     5    26    25    1
     6    25    24    1
     7    24    22    1
     8    22    23    1
     9    22     1    1
    10     1     2   ar
    11     2     3   ar
    12     3     4   ar
    13     4     7    1
    14     7     8   ar
    15     8     9   ar
    16     9    10   ar
    17    10    14    1
    18    14    15    1
    19    15    16    1
    20    16    17   ar
    21    17    18   ar
    22    18    19   ar
    23    19    20   ar
    24    20    21   ar
    25    10    11   ar
    26    11    12   ar
    27    12    13    2
    28     4     5   ar
    29     5     6   ar
    30     6     1   ar
    31    12     7   ar
    32    21    16   ar
@<TRIPOS>MOLECULE
*****
 30 32 0 0 0
SMALL
GASTEIGER

@<TRIPOS>ATOM
      1 C         141.8866  142.9276  164.4997 C.ar    1  UNL1        0.0480
      2 C         141.4056  141.9874  163.4346 C.ar    1  UNL1        0.0160
      3 C         141.2808  142.4608  162.0168 C.ar    1  UNL1        0.0189
      4 C         141.6370  143.8745  161.6640 C.ar    1  UNL1        0.0670
      5 C         142.1180  144.8148  162.7291 C.ar    1  UNL1        0.0189
      6 C         142.2428  144.3414  164.1470 C.ar    1  UNL1        0.0160
      7 N         141.5122  144.3480  160.2462 N.ar    1  UNL1       -0.2729
      8 C         142.4271  143.8026  159.1901 C.ar    1  UNL1        0.0860
      9 C         142.3023  144.2760  157.7722 C.ar    1  UNL1        0.0561
     10 C         141.2626  145.2948  157.4105 C.ar    1  UNL1        0.1453
     11 C         140.3477  145.8402  158.4666 C.ar    1  UNL1        0.0980
     12 C         140.4725  145.3668  159.8845 C.ar    1  UNL1        0.2679
     13 O         139.5575  145.9122  160.9406 O.2     1  UNL1       -0.2665
     14 O         141.1378  145.7683  155.9927 O.3     1  UNL1       -0.4704
     15 C         139.8042  146.2044  155.4622 C.3     1  UNL1        0.2320
     16 C         139.5110  147.6639  155.2786 C.ar    1  UNL1        0.0212
     17 C         138.7599  148.4169  156.3364 C.ar    1  UNL1       -0.0007
     18 C         138.4666  149.8765  156.1528 C.ar    1  UNL1       -0.0002
     19 C         138.9245  150.5830  154.9113 C.ar    1  UNL1       -0.0000
     20 C         139.6756  149.8301  153.8535 C.ar    1  UNL1       -0.0002
     21 C         139.9688  148.3705  154.0372 C.ar    1  UNL1       -0.0007
     22 N         142.0114  142.4542  165.9176 N.pl3   1  UNL1       -0.3044
     23 C         143.3641  142.3517  166.5577 C.3     1  UNL1        0.1122
     24 C         140.7836  142.0833  166.6953 C.3     1  UNL1        0.1081
     25 C         140.5875  140.6701  167.1582 C.3     1  UNL1        0.0938
     26 N         139.9331  139.6685  166.2534 N.3     1  UNL1       -0.2712
     27 C         142.2452  138.6890  165.5863 C.3     1  UNL1        0.0188
     28 C         140.7709  138.8203  165.3430 C.3     1  UNL1        0.0722
     29 C         138.4410  139.5151  166.2589 C.3     1  UNL1        0.0722
     30 C         137.8237  138.1987  166.6282 C.3     1  UNL1        0.0188
@<TRIPOS>BOND
     1    27    28    1
     2    28    26    1
     3    26    29    1
     4    29    30    1
     5    26    25    1
     6    25    24    1
     7    24    22    1
     8    22    23    1
     9    22     1    1
    10     1     2   ar
    11     2     3   ar
    12     3     4   ar
    13     4     7    1
    14     7     8   ar
    15     8     9   ar
    16     9    10   ar
    17    10    14    1
    18    14    15    1
    19    15    16    1
    20    16    17   ar
    21    17    18   ar
    22    18    19   ar
    23    19    20   ar
    24    20    21   ar
    25    10    11   ar
    26    11    12   ar
    27    12    13    2
    28     4     5   ar
    29     5     6   ar
    30     6     1   ar
    31    12     7   ar
    32    21    16   ar
