@<TRIPOS>MOLECULE
*****
 28 33 0 0 0
SMALL
GASTEIGER

@<TRIPOS>ATOM
      1 C         140.3803  142.2240  165.8681 C.3     1  UNL1        0.0578
      2 C         139.8718  143.5400  165.3589 C.3     1  UNL1        0.0163
      3 C         140.2755  143.6675  163.9199 C.3     1  UNL1        0.0058
      4 C         141.0335  142.4302  163.5398 C.3     1  UNL1        0.0240
      5 C         141.7475  141.1170  163.4139 C.3     1  UNL1        0.0301
      6 C         142.4356  140.5379  162.2134 C.ar    1  UNL1       -0.0255
      7 C         143.0262  139.1927  162.5161 C.ar    1  UNL1       -0.0046
      8 C         143.7609  138.4386  161.4477 C.ar    1  UNL1       -0.0003
      9 C         143.9049  139.0296  160.0766 C.ar    1  UNL1       -0.0003
     10 C         143.3142  140.3748  159.7739 C.ar    1  UNL1       -0.0042
     11 C         142.5795  141.1289  160.8422 C.ar    1  UNL1       -0.0217
     12 C         142.0710  142.4450  160.3330 C.3     1  UNL1        0.0520
     13 C         141.2929  143.4952  161.0691 C.ar    1  UNL1       -0.0218
     14 C         140.9808  144.6662  160.1853 C.ar    1  UNL1       -0.0042
     15 C         140.2070  145.8307  160.7286 C.ar    1  UNL1       -0.0003
     16 C         139.7453  145.8241  162.1557 C.ar    1  UNL1       -0.0003
     17 C         140.0574  144.6530  163.0395 C.ar    1  UNL1       -0.0046
     18 C         140.8312  143.4885  162.4962 C.ar    1  UNL1       -0.0261
     19 C         141.0983  141.5380  164.7439 C.3     1  UNL1        0.0203
     20 C         140.0323  141.5515  169.6750 C.3     1  UNL1        0.0481
     21 C         139.7737  140.3989  170.5995 C.3     1  UNL1        0.0084
     22 C         139.8237  140.1747  169.1172 C.3     1  UNL1        0.0225
     23 C         139.9286  140.2591  167.6233 C.3     1  UNL1        0.0724
     24 N         140.2021  141.6880  167.2577 N.3     1  UNL1       -0.2736
     25 C         140.2662  142.4867  168.5259 C.3     1  UNL1        0.0772
     26 O         140.4982  142.1849  172.1512 O.co2   1  UNL1       -0.5491
     27 C         140.1504  142.5911  170.7498 C.2     1  UNL1        0.0510
     28 O         139.9207  144.0370  170.4232 O.co2   1  UNL1       -0.5491
@<TRIPOS>UNITY_ATOM_ATTR
26 1
charge -1
@<TRIPOS>BOND
     1    26    27   ar
     2    27    28   ar
     3    20    27    1
     4    20    21    1
     5    22    21    1
     6    22    23    1
     7    23    24    1
     8    24     1    1
     9     1     2    1
    10     2     3    1
    11     4     3    1
    12     4     5    1
    13     5     6    1
    14     6     7   ar
    15     7     8   ar
    16     8     9   ar
    17     9    10   ar
    18    10    11   ar
    19    11    12    1
    20    12    13    1
    21    13    14   ar
    22    14    15   ar
    23    15    16   ar
    24    16    17   ar
    25    17    18   ar
    26     4    19    1
    27    24    25    1
    28    22    20    1
    29    19     1    1
    30    25    20    1
    31    18     4    1
    32    11     6   ar
    33    18    13   ar
@<TRIPOS>MOLECULE
*****
 28 33 0 0 0
SMALL
GASTEIGER

@<TRIPOS>ATOM
      1 C         140.8852  141.3562  166.0870 C.3     1  UNL1        0.0578
      2 C         140.3102  139.9920  165.8462 C.3     1  UNL1        0.0163
      3 C         139.8469  139.9292  164.4210 C.3     1  UNL1        0.0058
      4 C         140.1356  141.2547  163.7809 C.3     1  UNL1        0.0240
      5 C         140.5234  142.6476  163.3815 C.3     1  UNL1        0.0301
      6 C         140.3587  143.3191  162.0504 C.ar    1  UNL1       -0.0255
      7 C         140.8826  144.7244  162.0768 C.ar    1  UNL1       -0.0046
      8 C         140.8131  145.5740  160.8426 C.ar    1  UNL1       -0.0003
      9 C         140.2198  145.0183  159.5820 C.ar    1  UNL1       -0.0003
     10 C         139.6959  143.6131  159.5555 C.ar    1  UNL1       -0.0042
     11 C         139.7654  142.7635  160.7897 C.ar    1  UNL1       -0.0217
     12 C         139.1903  141.3991  160.5489 C.3     1  UNL1        0.0520
     13 C         139.0665  140.2535  161.5092 C.ar    1  UNL1       -0.0218
     14 C         138.4285  139.0610  160.8605 C.ar    1  UNL1       -0.0042
     15 C         138.2112  137.8043  161.6500 C.ar    1  UNL1       -0.0003
     16 C         138.6319  137.7400  163.0883 C.ar    1  UNL1       -0.0003
     17 C         139.2699  138.9325  163.7372 C.ar    1  UNL1       -0.0046
     18 C         139.4872  140.1893  162.9476 C.ar    1  UNL1       -0.0261
     19 C         140.7774  142.1367  164.8106 C.3     1  UNL1        0.0203
     20 C         141.6687  142.7314  169.6311 C.3     1  UNL1        0.0481
     21 C         142.8632  143.0474  170.4816 C.3     1  UNL1        0.0084
     22 C         143.0515  142.5031  169.0966 C.3     1  UNL1        0.0225
     23 C         142.9263  141.9602  167.7039 C.3     1  UNL1        0.0724
     24 N         141.4661  141.8529  167.3777 N.3     1  UNL1       -0.2736
     25 C         140.6889  142.3296  168.5688 C.3     1  UNL1        0.0772
     26 O         140.4030  142.2920  171.8571 O.co2   1  UNL1       -0.5491
     27 C         140.6417  143.1420  170.6444 C.2     1  UNL1        0.0510
     28 O         139.8535  144.4025  170.4450 O.co2   1  UNL1       -0.5491
@<TRIPOS>UNITY_ATOM_ATTR
26 1
charge -1
@<TRIPOS>BOND
     1    26    27   ar
     2    27    28   ar
     3    20    27    1
     4    20    21    1
     5    22    21    1
     6    22    23    1
     7    23    24    1
     8    24     1    1
     9     1     2    1
    10     2     3    1
    11     4     3    1
    12     4     5    1
    13     5     6    1
    14     6     7   ar
    15     7     8   ar
    16     8     9   ar
    17     9    10   ar
    18    10    11   ar
    19    11    12    1
    20    12    13    1
    21    13    14   ar
    22    14    15   ar
    23    15    16   ar
    24    16    17   ar
    25    17    18   ar
    26     4    19    1
    27    24    25    1
    28    22    20    1
    29    19     1    1
    30    25    20    1
    31    18     4    1
    32    11     6   ar
    33    18    13   ar
@<TRIPOS>MOLECULE
*****
 28 33 0 0 0
SMALL
GASTEIGER

@<TRIPOS>ATOM
      1 C         139.8008  140.8132  166.5438 C.3     1  UNL1        0.0578
      2 C         139.4099  139.4881  165.9595 C.3     1  UNL1        0.0163
      3 C         139.2395  139.6660  164.4800 C.3     1  UNL1        0.0058
      4 C         139.5251  141.1011  164.1497 C.3     1  UNL1        0.0240
      5 C         139.8546  142.5629  164.0834 C.3     1  UNL1        0.0301
      6 C         139.8908  143.4600  162.8817 C.ar    1  UNL1       -0.0255
      7 C         140.2695  144.8623  163.2558 C.ar    1  UNL1       -0.0046
      8 C         140.3638  145.9213  162.1978 C.ar    1  UNL1       -0.0003
      9 C         140.0793  145.5780  160.7656 C.ar    1  UNL1       -0.0003
     10 C         139.7006  144.1757  160.3914 C.ar    1  UNL1       -0.0042
     11 C         139.6063  143.1167  161.4495 C.ar    1  UNL1       -0.0217
     12 C         139.2155  141.7915  160.8653 C.3     1  UNL1        0.0520
     13 C         139.0125  140.4824  161.5689 C.ar    1  UNL1       -0.0218
     14 C         138.6237  139.3982  160.6081 C.ar    1  UNL1       -0.0042
     15 C         138.3726  138.0068  161.1089 C.ar    1  UNL1       -0.0003
     16 C         138.5104  137.6995  162.5705 C.ar    1  UNL1       -0.0003
     17 C         138.8993  138.7837  163.5315 C.ar    1  UNL1       -0.0046
     18 C         139.1503  140.1752  163.0307 C.ar    1  UNL1       -0.0261
     19 C         139.8720  141.8101  165.4252 C.3     1  UNL1        0.0203
     20 C         140.6514  142.2353  170.0537 C.3     1  UNL1        0.0481
     21 C         140.7267  141.7639  171.4757 C.3     1  UNL1        0.0084
     22 C         140.3309  140.8088  170.3888 C.3     1  UNL1        0.0225
     23 C         139.9733  140.1025  169.1148 C.3     1  UNL1        0.0724
     24 N         140.0727  141.0924  167.9923 N.3     1  UNL1       -0.2736
     25 C         140.4918  142.4106  168.5726 C.3     1  UNL1        0.0772
     26 O         142.4691  143.9658  170.7254 O.co2   1  UNL1       -0.5491
     27 C         141.0547  143.6521  170.3367 C.2     1  UNL1        0.0510
     28 O         140.0437  144.7551  170.2310 O.co2   1  UNL1       -0.5491
@<TRIPOS>UNITY_ATOM_ATTR
26 1
charge -1
@<TRIPOS>BOND
     1    26    27   ar
     2    27    28   ar
     3    20    27    1
     4    20    21    1
     5    22    21    1
     6    22    23    1
     7    23    24    1
     8    24     1    1
     9     1     2    1
    10     2     3    1
    11     4     3    1
    12     4     5    1
    13     5     6    1
    14     6     7   ar
    15     7     8   ar
    16     8     9   ar
    17     9    10   ar
    18    10    11   ar
    19    11    12    1
    20    12    13    1
    21    13    14   ar
    22    14    15   ar
    23    15    16   ar
    24    16    17   ar
    25    17    18   ar
    26     4    19    1
    27    24    25    1
    28    22    20    1
    29    19     1    1
    30    25    20    1
    31    18     4    1
    32    11     6   ar
    33    18    13   ar
@<TRIPOS>MOLECULE
*****
 28 33 0 0 0
SMALL
GASTEIGER

@<TRIPOS>ATOM
      1 C         141.2969  141.0839  165.8358 C.3     1  UNL1        0.0578
      2 C         142.0631  139.8829  165.3664 C.3     1  UNL1        0.0163
      3 C         142.3659  140.0669  163.9089 C.3     1  UNL1        0.0058
      4 C         141.7867  141.3816  163.4775 C.3     1  UNL1        0.0240
      5 C         141.1264  142.7169  163.3017 C.3     1  UNL1        0.0301
      6 C         141.0235  143.5533  162.0608 C.ar    1  UNL1       -0.0255
      7 C         140.2761  144.8279  162.3193 C.ar    1  UNL1       -0.0046
      8 C         140.0607  145.8100  161.2062 C.ar    1  UNL1       -0.0003
      9 C         140.5927  145.5175  159.8346 C.ar    1  UNL1       -0.0003
     10 C         141.3400  144.2430  159.5760 C.ar    1  UNL1       -0.0042
     11 C         141.5554  143.2609  160.6891 C.ar    1  UNL1       -0.0217
     12 C         142.3217  142.0598  160.2196 C.3     1  UNL1        0.0520
     13 C         142.7453  140.8546  161.0058 C.ar    1  UNL1       -0.0218
     14 C         143.4979  139.8790  160.1504 C.ar    1  UNL1       -0.0042
     15 C         144.0125  138.6016  160.7449 C.ar    1  UNL1       -0.0003
     16 C         143.7744  138.2998  162.1948 C.ar    1  UNL1       -0.0003
     17 C         143.0217  139.2754  163.0502 C.ar    1  UNL1       -0.0046
     18 C         142.5071  140.5528  162.4557 C.ar    1  UNL1       -0.0261
     19 C         141.1260  142.0102  164.6685 C.3     1  UNL1        0.0203
     20 C         140.4100  142.3111  169.4097 C.3     1  UNL1        0.0481
     21 C         139.5724  141.8796  170.5769 C.3     1  UNL1        0.0084
     22 C         139.6120  141.0433  169.3323 C.3     1  UNL1        0.0225
     23 C         139.8472  140.4293  167.9841 C.3     1  UNL1        0.0724
     24 N         140.7904  141.3176  167.2283 N.3     1  UNL1       -0.2736
     25 C         141.1382  142.4807  168.1095 C.3     1  UNL1        0.0772
     26 O         142.3434  143.6152  170.5548 O.co2   1  UNL1       -0.5491
     27 C         140.9329  143.5644  170.0469 C.2     1  UNL1        0.0510
     28 O         140.0454  144.7667  170.1761 O.co2   1  UNL1       -0.5491
@<TRIPOS>UNITY_ATOM_ATTR
26 1
charge -1
@<TRIPOS>BOND
     1    26    27   ar
     2    27    28   ar
     3    20    27    1
     4    20    21    1
     5    22    21    1
     6    22    23    1
     7    23    24    1
     8    24     1    1
     9     1     2    1
    10     2     3    1
    11     4     3    1
    12     4     5    1
    13     5     6    1
    14     6     7   ar
    15     7     8   ar
    16     8     9   ar
    17     9    10   ar
    18    10    11   ar
    19    11    12    1
    20    12    13    1
    21    13    14   ar
    22    14    15   ar
    23    15    16   ar
    24    16    17   ar
    25    17    18   ar
    26     4    19    1
    27    24    25    1
    28    22    20    1
    29    19     1    1
    30    25    20    1
    31    18     4    1
    32    11     6   ar
    33    18    13   ar
@<TRIPOS>MOLECULE
*****
 28 33 0 0 0
SMALL
GASTEIGER

@<TRIPOS>ATOM
      1 C         141.7759  138.8982  161.5404 C.3     1  UNL1        0.0578
      2 C         142.5108  138.1664  162.6240 C.3     1  UNL1        0.0163
      3 C         142.2983  138.9079  163.9104 C.3     1  UNL1        0.0058
      4 C         141.4319  140.0979  163.6218 C.3     1  UNL1        0.0240
      5 C         140.5692  141.1987  163.0796 C.3     1  UNL1        0.0301
      6 C         139.9549  142.3535  163.8139 C.ar    1  UNL1       -0.0255
      7 C         139.1593  143.2287  162.8915 C.ar    1  UNL1       -0.0046
      8 C         138.4605  144.4431  163.4269 C.ar    1  UNL1       -0.0003
      9 C         138.5573  144.7823  164.8849 C.ar    1  UNL1       -0.0003
     10 C         139.3529  143.9071  165.8073 C.ar    1  UNL1       -0.0042
     11 C         140.0517  142.6927  165.2719 C.ar    1  UNL1       -0.0217
     12 C         140.7867  141.9609  166.3555 C.3     1  UNL1        0.0520
     13 C         141.6063  140.7092  166.2490 C.ar    1  UNL1       -0.0218
     14 C         142.1723  140.3098  167.5794 C.ar    1  UNL1       -0.0042
     15 C         143.0255  139.0813  167.6933 C.ar    1  UNL1       -0.0003
     16 C         143.3127  138.2523  166.4767 C.ar    1  UNL1       -0.0003
     17 C         142.7467  138.6516  165.1462 C.ar    1  UNL1       -0.0046
     18 C         141.8935  139.8801  165.0323 C.ar    1  UNL1       -0.0261
     19 C         141.1091  140.0920  162.1570 C.3     1  UNL1        0.0203
     20 C         140.9042  138.0929  157.8448 C.3     1  UNL1        0.0481
     21 C         141.5785  137.5601  156.6154 C.3     1  UNL1        0.0084
     22 C         142.3532  137.7080  157.8913 C.3     1  UNL1        0.0225
     23 C         142.8561  137.9628  159.2813 C.3     1  UNL1        0.0724
     24 N         141.7179  138.5052  160.0939 N.3     1  UNL1       -0.2736
     25 C         140.5115  138.5856  159.2060 C.3     1  UNL1        0.0772
     26 O         138.7371  139.4951  157.5497 O.co2   1  UNL1       -0.5491
     27 C         139.5569  138.2847  157.2139 C.2     1  UNL1        0.0510
     28 O         139.0294  137.2661  156.2474 O.co2   1  UNL1       -0.5491
@<TRIPOS>UNITY_ATOM_ATTR
26 1
charge -1
@<TRIPOS>BOND
     1    26    27   ar
     2    27    28   ar
     3    20    27    1
     4    20    21    1
     5    22    21    1
     6    22    23    1
     7    23    24    1
     8    24     1    1
     9     1     2    1
    10     2     3    1
    11     4     3    1
    12     4     5    1
    13     5     6    1
    14     6     7   ar
    15     7     8   ar
    16     8     9   ar
    17     9    10   ar
    18    10    11   ar
    19    11    12    1
    20    12    13    1
    21    13    14   ar
    22    14    15   ar
    23    15    16   ar
    24    16    17   ar
    25    17    18   ar
    26     4    19    1
    27    24    25    1
    28    22    20    1
    29    19     1    1
    30    25    20    1
    31    18     4    1
    32    11     6   ar
    33    18    13   ar
@<TRIPOS>MOLECULE
*****
 28 33 0 0 0
SMALL
GASTEIGER

@<TRIPOS>ATOM
      1 C         141.8906  139.5673  160.8594 C.3     1  UNL1        0.0578
      2 C         143.0166  140.5370  161.0628 C.3     1  UNL1        0.0163
      3 C         142.9733  141.0056  162.4870 C.3     1  UNL1        0.0058
      4 C         141.8204  140.3254  163.1639 C.3     1  UNL1        0.0240
      5 C         140.6273  139.5288  163.6018 C.3     1  UNL1        0.0301
      6 C         139.9755  139.4861  164.9522 C.ar    1  UNL1       -0.0255
      7 C         138.8006  138.5537  164.9644 C.ar    1  UNL1       -0.0046
      8 C         138.0062  138.3647  166.2226 C.ar    1  UNL1       -0.0003
      9 C         138.3866  139.1082  167.4686 C.ar    1  UNL1       -0.0003
     10 C         139.5615  140.0407  167.4563 C.ar    1  UNL1       -0.0042
     11 C         140.3559  140.2296  166.1981 C.ar    1  UNL1       -0.0217
     12 C         141.4821  141.1994  166.4015 C.3     1  UNL1        0.0520
     13 C         142.5059  141.6652  165.4091 C.ar    1  UNL1       -0.0218
     14 C         143.4608  142.6442  166.0254 C.ar    1  UNL1       -0.0042
     15 C         144.5661  143.2343  165.2008 C.ar    1  UNL1       -0.0003
     16 C         144.7167  142.8454  163.7600 C.ar    1  UNL1       -0.0003
     17 C         143.7619  141.8663  163.1437 C.ar    1  UNL1       -0.0046
     18 C         142.6565  141.2762  163.9683 C.ar    1  UNL1       -0.0261
     19 C         141.1512  139.4365  162.1580 C.3     1  UNL1        0.0203
     20 C         141.7622  137.5089  157.5713 C.3     1  UNL1        0.0481
     21 C         140.7703  137.1371  156.5092 C.3     1  UNL1        0.0084
     22 C         140.3482  138.0017  157.6601 C.3     1  UNL1        0.0225
     23 C         140.2243  138.8327  158.9027 C.3     1  UNL1        0.0724
     24 N         141.5615  138.8536  159.5818 N.3     1  UNL1       -0.2736
     25 C         142.5121  138.0353  158.7589 C.3     1  UNL1        0.0772
     26 O         143.9740  137.5156  156.2083 O.co2   1  UNL1       -0.5491
     27 C         142.9201  136.7683  156.9704 C.2     1  UNL1        0.0510
     28 O         143.0240  135.2807  157.1318 O.co2   1  UNL1       -0.5491
@<TRIPOS>UNITY_ATOM_ATTR
26 1
charge -1
@<TRIPOS>BOND
     1    26    27   ar
     2    27    28   ar
     3    20    27    1
     4    20    21    1
     5    22    21    1
     6    22    23    1
     7    23    24    1
     8    24     1    1
     9     1     2    1
    10     2     3    1
    11     4     3    1
    12     4     5    1
    13     5     6    1
    14     6     7   ar
    15     7     8   ar
    16     8     9   ar
    17     9    10   ar
    18    10    11   ar
    19    11    12    1
    20    12    13    1
    21    13    14   ar
    22    14    15   ar
    23    15    16   ar
    24    16    17   ar
    25    17    18   ar
    26     4    19    1
    27    24    25    1
    28    22    20    1
    29    19     1    1
    30    25    20    1
    31    18     4    1
    32    11     6   ar
    33    18    13   ar
@<TRIPOS>MOLECULE
*****
 28 33 0 0 0
SMALL
GASTEIGER

@<TRIPOS>ATOM
      1 C         140.7514  138.6993  161.2033 C.3     1  UNL1        0.0578
      2 C         139.6630  138.1353  162.0678 C.3     1  UNL1        0.0163
      3 C         139.7999  138.7351  163.4357 C.3     1  UNL1        0.0058
      4 C         140.9729  139.6698  163.4167 C.3     1  UNL1        0.0240
      5 C         142.1695  140.5311  163.1402 C.3     1  UNL1        0.0301
      6 C         142.8968  141.4502  164.0763 C.ar    1  UNL1       -0.0255
      7 C         144.0472  142.1292  163.3940 C.ar    1  UNL1       -0.0046
      8 C         144.9080  143.0929  164.1557 C.ar    1  UNL1       -0.0003
      9 C         144.6184  143.3777  165.5996 C.ar    1  UNL1       -0.0003
     10 C         143.4680  142.6987  166.2819 C.ar    1  UNL1       -0.0042
     11 C         142.6072  141.7350  165.5203 C.ar    1  UNL1       -0.0217
     12 C         141.5188  141.1710  166.3847 C.3     1  UNL1        0.0520
     13 C         140.4511  140.1830  166.0188 C.ar    1  UNL1       -0.0218
     14 C         139.5577  139.8840  167.1860 C.ar    1  UNL1       -0.0042
     15 C         138.4214  138.9169  167.0323 C.ar    1  UNL1       -0.0003
     16 C         138.1785  138.2489  165.7115 C.ar    1  UNL1       -0.0003
     17 C         139.0719  138.5478  164.5443 C.ar    1  UNL1       -0.0046
     18 C         140.2082  139.5149  164.6979 C.ar    1  UNL1       -0.0261
     19 C         141.5610  139.6477  162.0370 C.3     1  UNL1        0.0203
     20 C         140.6321  138.0084  157.3858 C.3     1  UNL1        0.0481
     21 C         141.5590  137.5858  156.2847 C.3     1  UNL1        0.0084
     22 C         142.0751  137.7296  157.6858 C.3     1  UNL1        0.0225
     23 C         142.2954  137.9544  159.1523 C.3     1  UNL1        0.0724
     24 N         140.9886  138.3722  159.7588 N.3     1  UNL1       -0.2736
     25 C         139.9606  138.4055  158.6669 C.3     1  UNL1        0.0772
     26 O         138.8583  139.4848  156.1925 O.co2   1  UNL1       -0.5491
     27 C         139.4103  138.1301  156.5241 C.2     1  UNL1        0.0510
     28 O         138.7405  136.8970  155.9940 O.co2   1  UNL1       -0.5491
@<TRIPOS>UNITY_ATOM_ATTR
26 1
charge -1
@<TRIPOS>BOND
     1    26    27   ar
     2    27    28   ar
     3    20    27    1
     4    20    21    1
     5    22    21    1
     6    22    23    1
     7    23    24    1
     8    24     1    1
     9     1     2    1
    10     2     3    1
    11     4     3    1
    12     4     5    1
    13     5     6    1
    14     6     7   ar
    15     7     8   ar
    16     8     9   ar
    17     9    10   ar
    18    10    11   ar
    19    11    12    1
    20    12    13    1
    21    13    14   ar
    22    14    15   ar
    23    15    16   ar
    24    16    17   ar
    25    17    18   ar
    26     4    19    1
    27    24    25    1
    28    22    20    1
    29    19     1    1
    30    25    20    1
    31    18     4    1
    32    11     6   ar
    33    18    13   ar
@<TRIPOS>MOLECULE
*****
 28 33 0 0 0
SMALL
GASTEIGER

@<TRIPOS>ATOM
      1 C         140.5714  140.3229  166.5966 C.3     1  UNL1        0.0578
      2 C         139.5467  139.4030  166.0021 C.3     1  UNL1        0.0163
      3 C         139.7542  139.3758  164.5169 C.3     1  UNL1        0.0058
      4 C         140.9073  140.2790  164.1934 C.3     1  UNL1        0.0240
      5 C         142.0698  141.2252  164.1352 C.3     1  UNL1        0.0301
      6 C         142.8353  141.6936  162.9332 C.ar    1  UNL1       -0.0255
      7 C         143.9307  142.6435  163.3171 C.ar    1  UNL1       -0.0046
      8 C         144.8182  143.2313  162.2604 C.ar    1  UNL1       -0.0003
      9 C         144.6103  142.8691  160.8197 C.ar    1  UNL1       -0.0003
     10 C         143.5148  141.9191  160.4358 C.ar    1  UNL1       -0.0042
     11 C         142.6273  141.3313  161.4926 C.ar    1  UNL1       -0.0217
     12 C         141.6025  140.4113  160.8981 C.3     1  UNL1        0.0520
     13 C         140.5326  139.6263  161.5973 C.ar    1  UNL1       -0.0218
     14 C         139.7158  138.8269  160.6259 C.ar    1  UNL1       -0.0042
     15 C         138.5897  137.9686  161.1209 C.ar    1  UNL1       -0.0003
     16 C         138.2803  137.9097  162.5874 C.ar    1  UNL1       -0.0003
     17 C         139.0971  138.7091  163.5590 C.ar    1  UNL1       -0.0046
     18 C         140.2232  139.5674  163.0639 C.ar    1  UNL1       -0.0261
     19 C         141.4124  140.8644  165.4788 C.3     1  UNL1        0.0203
     20 C         140.6555  141.8123  170.1799 C.3     1  UNL1        0.0481
     21 C         141.1038  141.4194  171.5564 C.3     1  UNL1        0.0084
     22 C         141.2813  140.4686  170.4098 C.3     1  UNL1        0.0225
     23 C         141.3260  139.7472  169.0955 C.3     1  UNL1        0.0724
     24 N         140.7278  140.6449  168.0533 N.3     1  UNL1       -0.2736
     25 C         140.3133  141.9213  168.7236 C.3     1  UNL1        0.0772
     26 O         140.8889  144.3993  170.1255 O.co2   1  UNL1       -0.5491
     27 C         140.1473  143.1709  170.5625 C.2     1  UNL1        0.0510
     28 O         138.8977  143.3009  171.3819 O.co2   1  UNL1       -0.5491
@<TRIPOS>UNITY_ATOM_ATTR
26 1
charge -1
@<TRIPOS>BOND
     1    26    27   ar
     2    27    28   ar
     3    20    27    1
     4    20    21    1
     5    22    21    1
     6    22    23    1
     7    23    24    1
     8    24     1    1
     9     1     2    1
    10     2     3    1
    11     4     3    1
    12     4     5    1
    13     5     6    1
    14     6     7   ar
    15     7     8   ar
    16     8     9   ar
    17     9    10   ar
    18    10    11   ar
    19    11    12    1
    20    12    13    1
    21    13    14   ar
    22    14    15   ar
    23    15    16   ar
    24    16    17   ar
    25    17    18   ar
    26     4    19    1
    27    24    25    1
    28    22    20    1
    29    19     1    1
    30    25    20    1
    31    18     4    1
    32    11     6   ar
    33    18    13   ar
@<TRIPOS>MOLECULE
*****
 28 33 0 0 0
SMALL
GASTEIGER

@<TRIPOS>ATOM
      1 C         142.6368  139.5138  161.4843 C.3     1  UNL1        0.0578
      2 C         143.2530  138.6634  162.5553 C.3     1  UNL1        0.0163
      3 C         142.8435  139.2236  163.8850 C.3     1  UNL1        0.0058
      4 C         141.9742  140.4204  163.6359 C.3     1  UNL1        0.0240
      5 C         141.1453  141.5622  163.1267 C.3     1  UNL1        0.0301
      6 C         140.3932  142.5953  163.9123 C.ar    1  UNL1       -0.0255
      7 C         139.6899  143.5652  163.0098 C.ar    1  UNL1       -0.0046
      8 C         138.8776  144.6816  163.5962 C.ar    1  UNL1       -0.0003
      9 C         138.7686  144.8280  165.0850 C.ar    1  UNL1       -0.0003
     10 C         139.4718  143.8581  165.9875 C.ar    1  UNL1       -0.0042
     11 C         140.2842  142.7417  165.4011 C.ar    1  UNL1       -0.0217
     12 C         140.9004  141.8912  166.4721 C.3     1  UNL1        0.0520
     13 C         141.7777  140.6842  166.3188 C.ar    1  UNL1       -0.0218
     14 C         142.1806  140.1266  167.6517 C.ar    1  UNL1       -0.0042
     15 C         143.0614  138.9145  167.7225 C.ar    1  UNL1       -0.0003
     16 C         143.5393  138.2600  166.4603 C.ar    1  UNL1       -0.0003
     17 C         143.1364  138.8176  165.1273 C.ar    1  UNL1       -0.0046
     18 C         142.2556  140.0297  165.0565 C.ar    1  UNL1       -0.0261
     19 C         141.8464  140.5998  162.1522 C.3     1  UNL1        0.0203
     20 C         143.5127  139.5640  157.7034 C.3     1  UNL1        0.0481
     21 C         143.1413  138.8318  156.4479 C.3     1  UNL1        0.0084
     22 C         142.5133  138.4466  157.7546 C.3     1  UNL1        0.0225
     23 C         142.0636  138.2918  159.1771 C.3     1  UNL1        0.0724
     24 N         142.7850  139.3135  160.0052 N.3     1  UNL1       -0.2736
     25 C         143.6806  140.0998  159.0943 C.3     1  UNL1        0.0772
     26 O         145.5198  139.9743  156.1056 O.co2   1  UNL1       -0.5491
     27 C         144.4860  140.5033  157.0549 C.2     1  UNL1        0.0510
     28 O         144.4253  141.9716  157.3558 O.co2   1  UNL1       -0.5491
@<TRIPOS>UNITY_ATOM_ATTR
26 1
charge -1
@<TRIPOS>BOND
     1    26    27   ar
     2    27    28   ar
     3    20    27    1
     4    20    21    1
     5    22    21    1
     6    22    23    1
     7    23    24    1
     8    24     1    1
     9     1     2    1
    10     2     3    1
    11     4     3    1
    12     4     5    1
    13     5     6    1
    14     6     7   ar
    15     7     8   ar
    16     8     9   ar
    17     9    10   ar
    18    10    11   ar
    19    11    12    1
    20    12    13    1
    21    13    14   ar
    22    14    15   ar
    23    15    16   ar
    24    16    17   ar
    25    17    18   ar
    26     4    19    1
    27    24    25    1
    28    22    20    1
    29    19     1    1
    30    25    20    1
    31    18     4    1
    32    11     6   ar
    33    18    13   ar
