@<TRIPOS>MOLECULE
*****
 28 32 0 0 0
SMALL
GASTEIGER

@<TRIPOS>ATOM
      1 C         139.6692  141.6493  170.0297 C.3     1  UNL1        0.0438
      2 C         140.6288  141.6391  168.8768 C.3     1  UNL1        0.1397
      3 C         141.2536  142.7057  169.7264 C.3     1  UNL1        0.0438
      4 O         141.8055  141.9993  168.0191 O.3     1  UNL1       -0.4826
      5 C         142.0240  141.2964  166.7121 C.ar    1  UNL1        0.1359
      6 C         143.2007  141.6567  165.8543 C.ar    1  UNL1        0.0366
      7 C         143.4192  140.9538  164.5474 C.ar    1  UNL1        0.0032
      8 C         142.4610  139.8907  164.0981 C.ar    1  UNL1        0.0029
      9 C         141.2844  139.5305  164.9558 C.ar    1  UNL1        0.0007
     10 C         141.0659  140.2334  166.2629 C.ar    1  UNL1        0.0329
     11 C         139.8892  139.8732  167.1206 C.3     1  UNL1        0.1258
     12 C         139.9777  139.0882  165.8454 C.3     1  UNL1        0.0918
     13 S         138.8175  138.1383  165.8044 S.3     1  UNL1       -0.0785
     14 C         138.0120  138.3361  167.0542 C.2     1  UNL1        0.1483
     15 N         136.7634  137.5923  167.4253 N.pl3   1  UNL1       -0.3380
     16 N         138.6744  139.4084  167.8677 N.2     1  UNL1       -0.2497
     17 C         139.6707  140.5760  168.4276 C.3     1  UNL1        0.1114
     18 C         139.9990  140.6765  168.1883 C.3     1  UNL1        0.1500
     19 O         139.6539  140.5709  168.4398 O.3     1  UNL1       -0.3532
     20 C         139.9990  140.6765  168.1883 C.3     1  UNL1        0.1500
     21 H         136.4039  136.9021  166.8223 H       1  UNL1        0.1442
     22 H         136.3033  137.7944  168.2720 H       1  UNL1        0.1442
     23 C         142.6796  139.1878  162.7911 C.ar    1  UNL1        0.0384
     24 C         141.6384  138.2460  162.2627 C.ar    1  UNL1        0.1022
     25 N         141.8569  137.5432  160.9558 N.ar    1  UNL1       -0.2224
     26 C         143.1166  137.7821  160.1771 C.ar    1  UNL1        0.1989
     27 N         144.1577  138.7238  160.7055 N.ar    1  UNL1       -0.2224
     28 C         143.9392  139.4267  162.0125 C.ar    1  UNL1        0.1022
@<TRIPOS>BOND
     1     1     2    1
     2     2     3    1
     3     2     4    1
     4     4     5    1
     5     5     6   ar
     6     6     7   ar
     7     7     8   ar
     8     8    23    1
     9    23    24   ar
    10    24    25   ar
    11    25    26   ar
    12    26    27   ar
    13    27    28   ar
    14     8     9   ar
    15     9    10   ar
    16    10    11    1
    17    11    12    1
    18    12    13    1
    19    13    14    1
    20    14    15    1
    21    14    16    2
    22    11    17    1
    23    17    18    1
    24    18    19    1
    25    19    20    1
    26    17     2    1
    27    10     5   ar
    28    16    11    1
    29    20    17    1
    30    28    23   ar
    31    15    21    1
    32    15    22    1
@<TRIPOS>MOLECULE
*****
 28 32 0 0 0
SMALL
GASTEIGER

@<TRIPOS>ATOM
      1 C         140.6366  143.2840  169.9670 C.3     1  UNL1        0.0438
      2 C         141.2698  142.1293  169.2487 C.3     1  UNL1        0.1397
      3 C         141.6845  141.8194  170.6565 C.3     1  UNL1        0.0438
      4 O         142.0470  140.8670  169.0193 O.3     1  UNL1       -0.4826
      5 C         142.1896  140.3157  167.6317 C.ar    1  UNL1        0.1359
      6 C         142.9668  139.0534  167.4023 C.ar    1  UNL1        0.0366
      7 C         143.1095  138.5021  166.0146 C.ar    1  UNL1        0.0032
      8 C         142.4748  139.2131  164.8562 C.ar    1  UNL1        0.0029
      9 C         141.6976  140.4754  165.0856 C.ar    1  UNL1        0.0007
     10 C         141.5550  141.0267  166.4733 C.ar    1  UNL1        0.0329
     11 C         140.7778  142.2890  166.7027 C.3     1  UNL1        0.1258
     12 C         140.8344  141.8598  165.2664 C.3     1  UNL1        0.0918
     13 S         140.0667  142.8596  164.4533 S.3     1  UNL1       -0.0785
     14 C         139.5357  143.9066  165.3869 C.2     1  UNL1        0.1483
     15 N         138.7102  145.0973  164.9985 N.pl3   1  UNL1       -0.3380
     16 N         139.9752  143.5540  166.7771 N.2     1  UNL1       -0.2497
     17 C         140.6352  142.8403  168.0904 C.3     1  UNL1        0.1114
     18 C         140.8521  142.4881  168.0264 C.3     1  UNL1        0.1500
     19 O         140.6241  142.8583  168.0936 O.3     1  UNL1       -0.3532
     20 C         140.8521  142.4881  168.0264 C.3     1  UNL1        0.1500
     21 H         138.4714  145.2440  164.0548 H       1  UNL1        0.1442
     22 H         138.4071  145.7319  165.6874 H       1  UNL1        0.1442
     23 C         142.6174  138.6618  163.4686 C.ar    1  UNL1        0.0384
     24 C         143.9496  138.6989  162.7800 C.ar    1  UNL1        0.1022
     25 N         144.0922  138.1476  161.3923 N.ar    1  UNL1       -0.2224
     26 C         142.9027  137.5592  160.6931 C.ar    1  UNL1        0.1989
     27 N         141.5706  137.5221  161.3816 N.ar    1  UNL1       -0.2224
     28 C         141.4279  138.0734  162.7694 C.ar    1  UNL1        0.1022
@<TRIPOS>BOND
     1     1     2    1
     2     2     3    1
     3     2     4    1
     4     4     5    1
     5     5     6   ar
     6     6     7   ar
     7     7     8   ar
     8     8    23    1
     9    23    24   ar
    10    24    25   ar
    11    25    26   ar
    12    26    27   ar
    13    27    28   ar
    14     8     9   ar
    15     9    10   ar
    16    10    11    1
    17    11    12    1
    18    12    13    1
    19    13    14    1
    20    14    15    1
    21    14    16    2
    22    11    17    1
    23    17    18    1
    24    18    19    1
    25    19    20    1
    26    17     2    1
    27    10     5   ar
    28    16    11    1
    29    20    17    1
    30    28    23   ar
    31    15    21    1
    32    15    22    1
@<TRIPOS>MOLECULE
*****
 28 32 0 0 0
SMALL
GASTEIGER

@<TRIPOS>ATOM
      1 C         139.6742  138.3382  160.9191 C.3     1  UNL1        0.0438
      2 C         139.2511  138.5262  162.3460 C.3     1  UNL1        0.1397
      3 C         137.9572  138.0560  161.7503 C.3     1  UNL1        0.0438
      4 O         138.3786  138.5509  163.5659 O.3     1  UNL1       -0.4826
      5 C         138.9470  138.9804  164.8859 C.ar    1  UNL1        0.1359
      6 C         138.0745  139.0051  166.1058 C.ar    1  UNL1        0.0366
      7 C         138.6429  139.4347  167.4258 C.ar    1  UNL1        0.0032
      8 C         140.0838  139.8396  167.5259 C.ar    1  UNL1        0.0029
      9 C         140.9562  139.8149  166.3060 C.ar    1  UNL1        0.0007
     10 C         140.3878  139.3853  164.9859 C.ar    1  UNL1        0.0329
     11 C         141.2603  139.3606  163.7660 C.3     1  UNL1        0.1258
     12 C         141.9652  139.8108  165.0113 C.3     1  UNL1        0.0918
     13 S         143.3899  140.1148  164.6532 S.3     1  UNL1       -0.0785
     14 C         143.5654  139.8525  163.1868 C.2     1  UNL1        0.1483
     15 N         144.8342  140.0259  162.4059 N.pl3   1  UNL1       -0.3380
     16 N         142.2492  139.3864  162.6385 N.2     1  UNL1       -0.2497
     17 C         140.6919  138.9310  162.4461 C.3     1  UNL1        0.1114
     18 C         140.4485  138.9379  162.7864 C.3     1  UNL1        0.1500
     19 O         140.7044  138.9307  162.4286 O.3     1  UNL1       -0.3532
     20 C         140.4485  138.9379  162.7864 C.3     1  UNL1        0.1500
     21 H         145.6513  140.3387  162.8573 H       1  UNL1        0.1442
     22 H         144.8500  139.8269  161.4418 H       1  UNL1        0.1442
     23 C         140.6522  140.2692  168.8459 C.ar    1  UNL1        0.0384
     24 C         139.7343  140.6537  169.9683 C.ar    1  UNL1        0.1022
     25 N         140.3026  141.0833  171.2882 N.ar    1  UNL1       -0.2224
     26 C         141.7889  141.1283  171.4859 C.ar    1  UNL1        0.1989
     27 N         142.7067  140.7438  170.3636 N.ar    1  UNL1       -0.2224
     28 C         142.1384  140.3142  169.0436 C.ar    1  UNL1        0.1022
@<TRIPOS>BOND
     1     1     2    1
     2     2     3    1
     3     2     4    1
     4     4     5    1
     5     5     6   ar
     6     6     7   ar
     7     7     8   ar
     8     8    23    1
     9    23    24   ar
    10    24    25   ar
    11    25    26   ar
    12    26    27   ar
    13    27    28   ar
    14     8     9   ar
    15     9    10   ar
    16    10    11    1
    17    11    12    1
    18    12    13    1
    19    13    14    1
    20    14    15    1
    21    14    16    2
    22    11    17    1
    23    17    18    1
    24    18    19    1
    25    19    20    1
    26    17     2    1
    27    10     5   ar
    28    16    11    1
    29    20    17    1
    30    28    23   ar
    31    15    21    1
    32    15    22    1
@<TRIPOS>MOLECULE
*****
 28 32 0 0 0
SMALL
GASTEIGER

@<TRIPOS>ATOM
      1 C         142.9612  141.8594  170.2596 C.3     1  UNL1        0.0438
      2 C         141.8234  141.2079  169.5307 C.3     1  UNL1        0.1397
      3 C         141.4919  140.8114  170.9389 C.3     1  UNL1        0.0438
      4 O         140.5705  140.4187  169.2910 O.3     1  UNL1       -0.4826
      5 C         140.0443  140.2522  167.8963 C.ar    1  UNL1        0.1359
      6 C         138.7914  139.4630  167.6566 C.ar    1  UNL1        0.0366
      7 C         138.2652  139.2966  166.2618 C.ar    1  UNL1        0.0032
      8 C         138.9918  139.9194  165.1067 C.ar    1  UNL1        0.0029
      9 C         140.2447  140.7086  165.3464 C.ar    1  UNL1        0.0007
     10 C         140.7709  140.8750  166.7413 C.ar    1  UNL1        0.0329
     11 C         142.0238  141.6642  166.9810 C.3     1  UNL1        0.1258
     12 C         141.6200  141.5839  165.5385 C.3     1  UNL1        0.0918
     13 S         142.6285  142.3467  164.7316 S.3     1  UNL1       -0.0785
     14 C         143.6557  142.8984  165.6753 C.2     1  UNL1        0.1483
     15 N         144.8473  143.7265  165.2955 N.pl3   1  UNL1       -0.3380
     16 N         143.2819  142.4766  167.0655 N.2     1  UNL1       -0.2497
     17 C         142.5500  141.8306  168.3757 C.3     1  UNL1        0.1114
     18 C         142.2005  141.6105  168.3088 C.3     1  UNL1        0.1500
     19 O         142.5679  141.8419  168.3791 O.3     1  UNL1       -0.3532
     20 C         142.2005  141.6105  168.3088 C.3     1  UNL1        0.1500
     21 H         145.0087  143.9527  164.3510 H       1  UNL1        0.1442
     22 H         145.4679  144.0440  165.9907 H       1  UNL1        0.1442
     23 C         138.4656  139.7529  163.7120 C.ar    1  UNL1        0.0384
     24 C         137.8742  140.9263  162.9884 C.ar    1  UNL1        0.1022
     25 N         137.3480  140.7599  161.5937 N.ar    1  UNL1       -0.2224
     26 C         137.4131  139.4201  160.9224 C.ar    1  UNL1        0.1989
     27 N         138.0045  138.2467  161.6459 N.ar    1  UNL1       -0.2224
     28 C         138.5307  138.4131  163.0407 C.ar    1  UNL1        0.1022
@<TRIPOS>BOND
     1     1     2    1
     2     2     3    1
     3     2     4    1
     4     4     5    1
     5     5     6   ar
     6     6     7   ar
     7     7     8   ar
     8     8    23    1
     9    23    24   ar
    10    24    25   ar
    11    25    26   ar
    12    26    27   ar
    13    27    28   ar
    14     8     9   ar
    15     9    10   ar
    16    10    11    1
    17    11    12    1
    18    12    13    1
    19    13    14    1
    20    14    15    1
    21    14    16    2
    22    11    17    1
    23    17    18    1
    24    18    19    1
    25    19    20    1
    26    17     2    1
    27    10     5   ar
    28    16    11    1
    29    20    17    1
    30    28    23   ar
    31    15    21    1
    32    15    22    1
@<TRIPOS>MOLECULE
*****
 28 32 0 0 0
SMALL
GASTEIGER

@<TRIPOS>ATOM
      1 C         137.9799  141.0108  160.5910 C.3     1  UNL1        0.0438
      2 C         138.1463  140.4476  161.9714 C.3     1  UNL1        0.1397
      3 C         137.5721  139.2526  161.2699 C.3     1  UNL1        0.0438
      4 O         138.1132  139.4694  163.1080 O.3     1  UNL1       -0.4826
      5 C         138.5966  139.8819  164.4668 C.ar    1  UNL1        0.1359
      6 C         138.5635  138.9036  165.6034 C.ar    1  UNL1        0.0366
      7 C         139.0469  139.3161  166.9622 C.ar    1  UNL1        0.0032
      8 C         139.5634  140.7068  167.1843 C.ar    1  UNL1        0.0029
      9 C         139.5964  141.6850  166.0476 C.ar    1  UNL1        0.0007
     10 C         139.1130  141.2725  164.6888 C.ar    1  UNL1        0.0329
     11 C         139.1461  142.2507  163.5522 C.3     1  UNL1        0.1258
     12 C         139.6600  142.8039  164.8484 C.3     1  UNL1        0.0918
     13 S         140.0708  144.2275  164.6143 S.3     1  UNL1       -0.0785
     14 C         139.8108  144.5542  163.1736 C.2     1  UNL1        0.1483
     15 N         140.0758  145.8712  162.5065 N.pl3   1  UNL1       -0.3380
     16 N         139.2393  143.3324  162.5171 N.2     1  UNL1       -0.2497
     17 C         138.6627  141.8383  162.1934 C.3     1  UNL1        0.1114
     18 C         138.6535  141.5654  162.5106 C.3     1  UNL1        0.1500
     19 O         138.6632  141.8522  162.1772 O.3     1  UNL1       -0.3532
     20 C         138.6535  141.5654  162.5106 C.3     1  UNL1        0.1500
     21 H         140.4548  146.6179  163.0242 H       1  UNL1        0.1442
     22 H         139.8706  145.9890  161.5508 H       1  UNL1        0.1442
     23 C         140.0467  141.1192  168.5430 C.ar    1  UNL1        0.0384
     24 C         139.7620  140.2541  169.7349 C.ar    1  UNL1        0.1022
     25 N         140.2453  140.6665  171.0937 N.ar    1  UNL1       -0.2224
     26 C         141.0134  141.9441  171.2606 C.ar    1  UNL1        0.1989
     27 N         141.2982  142.8092  170.0688 N.ar    1  UNL1       -0.2224
     28 C         140.8148  142.3968  168.7100 C.ar    1  UNL1        0.1022
@<TRIPOS>BOND
     1     1     2    1
     2     2     3    1
     3     2     4    1
     4     4     5    1
     5     5     6   ar
     6     6     7   ar
     7     7     8   ar
     8     8    23    1
     9    23    24   ar
    10    24    25   ar
    11    25    26   ar
    12    26    27   ar
    13    27    28   ar
    14     8     9   ar
    15     9    10   ar
    16    10    11    1
    17    11    12    1
    18    12    13    1
    19    13    14    1
    20    14    15    1
    21    14    16    2
    22    11    17    1
    23    17    18    1
    24    18    19    1
    25    19    20    1
    26    17     2    1
    27    10     5   ar
    28    16    11    1
    29    20    17    1
    30    28    23   ar
    31    15    21    1
    32    15    22    1
@<TRIPOS>MOLECULE
*****
 28 32 0 0 0
SMALL
GASTEIGER

@<TRIPOS>ATOM
      1 C         141.3494  140.0176  170.1524 C.3     1  UNL1        0.0438
      2 C         141.6366  140.7921  168.9002 C.3     1  UNL1        0.1397
      3 C         142.7506  141.2873  169.7742 C.3     1  UNL1        0.0438
      4 O         142.3107  141.7386  167.9517 O.3     1  UNL1       -0.4826
      5 C         141.7711  141.9208  166.5641 C.ar    1  UNL1        0.1359
      6 C         142.4452  142.8673  165.6155 C.ar    1  UNL1        0.0366
      7 C         141.9055  143.0496  164.2279 C.ar    1  UNL1        0.0032
      8 C         140.6917  142.2854  163.7888 C.ar    1  UNL1        0.0029
      9 C         140.0176  141.3389  164.7373 C.ar    1  UNL1        0.0007
     10 C         140.5573  141.1566  166.1250 C.ar    1  UNL1        0.0329
     11 C         139.8832  140.2102  167.0736 C.3     1  UNL1        0.1258
     12 C         139.2325  140.2882  165.7243 C.3     1  UNL1        0.0918
     13 S         138.0541  139.3600  165.7236 S.3     1  UNL1       -0.0785
     14 C         137.9765  138.7083  167.0724 C.2     1  UNL1        0.1483
     15 N         136.9490  137.7070  167.5100 N.pl3   1  UNL1       -0.3380
     16 N         139.1070  139.2338  167.9068 N.2     1  UNL1       -0.2497
     17 C         140.4229  140.0279  168.4612 C.3     1  UNL1        0.1114
     18 C         140.6109  140.2920  168.1966 C.3     1  UNL1        0.1500
     19 O         140.4133  140.0144  168.4748 O.3     1  UNL1       -0.3532
     20 C         140.6109  140.2920  168.1966 C.3     1  UNL1        0.1500
     21 H         136.2419  137.4228  166.8866 H       1  UNL1        0.1442
     22 H         136.9816  137.3341  168.4205 H       1  UNL1        0.1442
     23 C         140.1521  142.4676  162.4012 C.ar    1  UNL1        0.0384
     24 C         141.0334  142.2133  161.2142 C.ar    1  UNL1        0.1022
     25 N         140.4937  142.3955  159.8266 N.ar    1  UNL1       -0.2224
     26 C         139.0728  142.8322  159.6258 C.ar    1  UNL1        0.1989
     27 N         138.1915  143.0865  160.8127 N.ar    1  UNL1       -0.2224
     28 C         138.7311  142.9042  162.2004 C.ar    1  UNL1        0.1022
@<TRIPOS>BOND
     1     1     2    1
     2     2     3    1
     3     2     4    1
     4     4     5    1
     5     5     6   ar
     6     6     7   ar
     7     7     8   ar
     8     8    23    1
     9    23    24   ar
    10    24    25   ar
    11    25    26   ar
    12    26    27   ar
    13    27    28   ar
    14     8     9   ar
    15     9    10   ar
    16    10    11    1
    17    11    12    1
    18    12    13    1
    19    13    14    1
    20    14    15    1
    21    14    16    2
    22    11    17    1
    23    17    18    1
    24    18    19    1
    25    19    20    1
    26    17     2    1
    27    10     5   ar
    28    16    11    1
    29    20    17    1
    30    28    23   ar
    31    15    21    1
    32    15    22    1
@<TRIPOS>MOLECULE
*****
 28 32 0 0 0
SMALL
GASTEIGER

@<TRIPOS>ATOM
      1 C         140.8643  145.5881  160.7311 C.3     1  UNL1        0.0438
      2 C         140.4867  145.1620  162.1190 C.3     1  UNL1        0.1397
      3 C         139.3047  146.0208  161.7793 C.3     1  UNL1        0.0438
      4 O         139.6985  145.0342  163.3888 O.3     1  UNL1       -0.4826
      5 C         140.2235  144.1956  164.5162 C.ar    1  UNL1        0.1359
      6 C         139.4353  144.0678  165.7860 C.ar    1  UNL1        0.0366
      7 C         139.9603  143.2292  166.9134 C.ar    1  UNL1        0.0032
      8 C         141.2736  142.5184  166.7710 C.ar    1  UNL1        0.0029
      9 C         142.0618  142.6462  165.5012 C.ar    1  UNL1        0.0007
     10 C         141.5367  143.4848  164.3738 C.ar    1  UNL1        0.0329
     11 C         142.3249  143.6127  163.1040 C.3     1  UNL1        0.1258
     12 C         142.9739  142.7434  164.1400 C.3     1  UNL1        0.0918
     13 S         144.2698  142.2399  163.5768 S.3     1  UNL1       -0.0785
     14 C         144.4217  142.7978  162.1928 C.2     1  UNL1        0.1483
     15 N         145.5734  142.5508  161.2641 N.pl3   1  UNL1       -0.3380
     16 N         143.2197  143.6463  161.9005 N.2     1  UNL1       -0.2497
     17 C         141.7999  144.4512  161.9765 C.3     1  UNL1        0.1114
     18 C         141.5800  144.4156  162.3308 C.3     1  UNL1        0.1500
     19 O         141.8111  144.4531  161.9584 O.3     1  UNL1       -0.3532
     20 C         141.5800  144.4156  162.3308 C.3     1  UNL1        0.1500
     21 H         146.3203  141.9756  161.5482 H       1  UNL1        0.1442
     22 H         145.5825  142.9637  160.3704 H       1  UNL1        0.1442
     23 C         141.7986  141.6798  167.8985 C.ar    1  UNL1        0.0384
     24 C         141.7648  142.2054  169.3030 C.ar    1  UNL1        0.1022
     25 N         142.2898  141.3668  170.4304 N.ar    1  UNL1       -0.2224
     26 C         142.8486  140.0026  170.1534 C.ar    1  UNL1        0.1989
     27 N         142.8824  139.4770  168.7489 N.ar    1  UNL1       -0.2224
     28 C         142.3574  140.3156  167.6214 C.ar    1  UNL1        0.1022
@<TRIPOS>BOND
     1     1     2    1
     2     2     3    1
     3     2     4    1
     4     4     5    1
     5     5     6   ar
     6     6     7   ar
     7     7     8   ar
     8     8    23    1
     9    23    24   ar
    10    24    25   ar
    11    25    26   ar
    12    26    27   ar
    13    27    28   ar
    14     8     9   ar
    15     9    10   ar
    16    10    11    1
    17    11    12    1
    18    12    13    1
    19    13    14    1
    20    14    15    1
    21    14    16    2
    22    11    17    1
    23    17    18    1
    24    18    19    1
    25    19    20    1
    26    17     2    1
    27    10     5   ar
    28    16    11    1
    29    20    17    1
    30    28    23   ar
    31    15    21    1
    32    15    22    1
@<TRIPOS>MOLECULE
*****
 28 32 0 0 0
SMALL
GASTEIGER

@<TRIPOS>ATOM
      1 C         142.3852  138.0669  160.1144 C.3     1  UNL1        0.0438
      2 C         142.7585  138.2463  161.5561 C.3     1  UNL1        0.1397
      3 C         144.0919  137.8601  160.9878 C.3     1  UNL1        0.0438
      4 O         143.5949  138.2916  162.8005 O.3     1  UNL1       -0.4826
      5 C         142.9684  138.6607  164.1123 C.ar    1  UNL1        0.1359
      6 C         143.8048  138.7060  165.3567 C.ar    1  UNL1        0.0366
      7 C         143.1782  139.0751  166.6685 C.ar    1  UNL1        0.0032
      8 C         141.7151  139.3990  166.7361 C.ar    1  UNL1        0.0029
      9 C         140.8786  139.3537  165.4918 C.ar    1  UNL1        0.0007
     10 C         141.5053  138.9846  164.1799 C.ar    1  UNL1        0.0329
     11 C         140.6689  138.9393  162.9356 C.3     1  UNL1        0.1258
     12 C         139.9069  139.3232  164.1693 C.3     1  UNL1        0.0918
     13 S         138.4779  139.5573  163.7775 S.3     1  UNL1       -0.0785
     14 C         138.3568  139.3181  162.3017 C.2     1  UNL1        0.1483
     15 N         137.1020  139.4395  161.4889 N.pl3   1  UNL1       -0.3380
     16 N         139.7109  138.9361  161.7813 N.2     1  UNL1       -0.2497
     17 C         141.2955  138.5702  161.6237 C.3     1  UNL1        0.1114
     18 C         141.5289  138.5828  161.9709 C.3     1  UNL1        0.1500
     19 O         141.2836  138.5695  161.6059 O.3     1  UNL1       -0.3532
     20 C         141.5289  138.5828  161.9709 C.3     1  UNL1        0.1500
     21 H         136.2571  139.6975  161.9234 H       1  UNL1        0.1442
     22 H         137.1233  139.2611  160.5209 H       1  UNL1        0.1442
     23 C         141.0885  139.7681  168.0480 C.ar    1  UNL1        0.0384
     24 C         141.9539  140.0360  169.2436 C.ar    1  UNL1        0.1022
     25 N         141.3273  140.4051  170.5555 N.ar    1  UNL1       -0.2224
     26 C         139.8353  140.5063  170.6719 C.ar    1  UNL1        0.1989
     27 N         138.9698  140.2385  169.4764 N.ar    1  UNL1       -0.2224
     28 C         139.5964  139.8693  168.1644 C.ar    1  UNL1        0.1022
@<TRIPOS>BOND
     1     1     2    1
     2     2     3    1
     3     2     4    1
     4     4     5    1
     5     5     6   ar
     6     6     7   ar
     7     7     8   ar
     8     8    23    1
     9    23    24   ar
    10    24    25   ar
    11    25    26   ar
    12    26    27   ar
    13    27    28   ar
    14     8     9   ar
    15     9    10   ar
    16    10    11    1
    17    11    12    1
    18    12    13    1
    19    13    14    1
    20    14    15    1
    21    14    16    2
    22    11    17    1
    23    17    18    1
    24    18    19    1
    25    19    20    1
    26    17     2    1
    27    10     5   ar
    28    16    11    1
    29    20    17    1
    30    28    23   ar
    31    15    21    1
    32    15    22    1
@<TRIPOS>MOLECULE
*****
 28 32 0 0 0
SMALL
GASTEIGER

@<TRIPOS>ATOM
      1 C         140.9068  139.8859  170.2317 C.3     1  UNL1        0.0438
      2 C         140.6782  140.8057  169.0690 C.3     1  UNL1        0.1397
      3 C         139.7166  141.3932  170.0589 C.3     1  UNL1        0.0438
      4 O         140.1156  141.9296  168.2501 O.3     1  UNL1       -0.4826
      5 C         140.5941  142.1464  166.8451 C.ar    1  UNL1        0.1359
      6 C         140.0315  143.2702  166.0263 C.ar    1  UNL1        0.0366
      7 C         140.5100  143.4871  164.6213 C.ar    1  UNL1        0.0032
      8 C         141.5511  142.5801  164.0351 C.ar    1  UNL1        0.0029
      9 C         142.1137  141.4563  164.8540 C.ar    1  UNL1        0.0007
     10 C         141.6352  141.2395  166.2590 C.ar    1  UNL1        0.0329
     11 C         142.1978  140.1157  167.0779 C.3     1  UNL1        0.1258
     12 C         142.7705  140.2087  165.6946 C.3     1  UNL1        0.0918
     13 S         143.7756  139.1069  165.5339 S.3     1  UNL1       -0.0785
     14 C         143.8242  138.3329  166.8178 C.2     1  UNL1        0.1483
     15 N         144.6950  137.1442  167.0983 N.pl3   1  UNL1       -0.3380
     16 N         142.8490  138.9563  167.7721 N.2     1  UNL1       -0.2497
     17 C         141.7193  139.8988  168.4828 C.3     1  UNL1        0.1114
     18 C         141.5623  140.2123  168.2544 C.3     1  UNL1        0.1500
     19 O         141.7273  139.8827  168.4945 O.3     1  UNL1       -0.3532
     20 C         141.5623  140.2123  168.2544 C.3     1  UNL1        0.1500
     21 H         145.3062  136.8070  166.4041 H       1  UNL1        0.1442
     22 H         144.6552  136.7012  167.9766 H       1  UNL1        0.1442
     23 C         142.0296  142.7970  162.6302 C.ar    1  UNL1        0.0384
     24 C         142.6370  141.6614  161.8610 C.ar    1  UNL1        0.1022
     25 N         143.1155  141.8783  160.4560 N.ar    1  UNL1       -0.2224
     26 C         142.9865  143.2307  159.8201 C.ar    1  UNL1        0.1989
     27 N         142.3791  144.3662  160.5892 N.ar    1  UNL1       -0.2224
     28 C         141.9006  144.1494  161.9943 C.ar    1  UNL1        0.1022
@<TRIPOS>BOND
     1     1     2    1
     2     2     3    1
     3     2     4    1
     4     4     5    1
     5     5     6   ar
     6     6     7   ar
     7     7     8   ar
     8     8    23    1
     9    23    24   ar
    10    24    25   ar
    11    25    26   ar
    12    26    27   ar
    13    27    28   ar
    14     8     9   ar
    15     9    10   ar
    16    10    11    1
    17    11    12    1
    18    12    13    1
    19    13    14    1
    20    14    15    1
    21    14    16    2
    22    11    17    1
    23    17    18    1
    24    18    19    1
    25    19    20    1
    26    17     2    1
    27    10     5   ar
    28    16    11    1
    29    20    17    1
    30    28    23   ar
    31    15    21    1
    32    15    22    1
