@<TRIPOS>MOLECULE
*****
 36 39 0 0 0
SMALL
GASTEIGER

@<TRIPOS>ATOM
      1 C         144.0489  137.9394  155.7627 C.3     1  UNL1        0.1534
      2 C         144.2501  136.4829  155.4661 C.3     1  UNL1        0.0469
      3 C         143.2658  135.7025  156.2860 C.3     1  UNL1        0.0798
      4 C         142.4562  136.6767  157.0893 C.3     1  UNL1        0.1101
      5 N         142.9401  138.0591  156.7660 N.am    1  UNL1       -0.2680
      6 C         142.4087  139.3371  157.3444 C.2     1  UNL1        0.2495
      7 O         142.9953  140.6519  156.9235 O.2     1  UNL1       -0.2699
      8 N         143.1173  134.2098  156.3000 N.3     1  UNL1       -0.2682
      9 C         142.0388  133.5558  155.4882 C.3     1  UNL1        0.0772
     10 C         141.8903  132.0633  155.5022 C.3     1  UNL1        0.0465
     11 C         142.8202  131.2248  156.3280 C.ar    1  UNL1        0.0105
     12 C         143.8988  131.8788  157.1398 C.ar    1  UNL1       -0.0072
     13 C         144.8287  131.0403  157.9656 C.ar    1  UNL1       -0.0030
     14 C         144.6802  129.5477  157.9797 C.ar    1  UNL1        0.0028
     15 C         143.6017  128.8936  157.1678 C.ar    1  UNL1        0.0366
     16 C         142.6717  129.7322  156.3420 C.ar    1  UNL1        0.1345
     17 C         144.0473  133.3713  157.1258 C.3     1  UNL1        0.0989
     18 O         141.5932  129.0782  155.5302 O.3     1  UNL1       -0.4718
     19 C         141.8650  128.6689  154.1129 C.3     1  UNL1        0.2525
     20 C         141.2905  139.3002  158.3436 C.ar    1  UNL1        0.0566
     21 C         141.5384  138.7772  159.7274 C.ar    1  UNL1        0.0044
     22 C         140.4202  138.7404  160.7266 C.ar    1  UNL1        0.0002
     23 C         139.0543  139.2264  160.3419 C.ar    1  UNL1        0.0274
     24 C         138.8065  139.7494  158.9581 C.ar    1  UNL1        0.1361
     25 C         139.9246  139.7863  157.9589 C.ar    1  UNL1        0.0411
     26 C         137.9361  139.1895  161.3412 C.3     1  UNL1        0.0952
     27 N         137.1467  140.4319  161.6296 N.3     1  UNL1       -0.3174
     28 H         137.7507  141.1229  162.0748 H       1  UNL1        0.1192
     29 H         136.3720  140.2054  162.2533 H       1  UNL1        0.1192
     30 O         137.4406  140.2354  158.5734 O.3     1  UNL1       -0.4717
     31 C         137.2443  140.9791  157.2857 C.3     1  UNL1        0.2525
     32 C         146.5448  141.0044  155.4080 C.3     1  UNL1        0.1107
     33 N         145.7729  139.8673  156.0090 N.am    1  UNL1       -0.3013
     34 C         144.8207  139.0765  155.1617 C.2     1  UNL1        0.2407
     35 O         144.6403  139.4227  153.7134 O.2     1  UNL1       -0.2733
     36 H         145.8913  139.6400  156.9596 H       1  UNL1        0.1495
@<TRIPOS>BOND
     1    32    33    1
     2    33    34   am
     3    34    35    2
     4     1    34    1
     5     1     2    1
     6     2     3    1
     7     3     8    1
     8     8     9    1
     9     9    10    1
    10    10    11    1
    11    11    12   ar
    12    12    13   ar
    13    13    14   ar
    14    14    15   ar
    15    15    16   ar
    16    16    18    1
    17    18    19    1
    18    12    17    1
    19     3     4    1
    20     4     5    1
    21     5     6   am
    22     6     7    2
    23     6    20    1
    24    20    21   ar
    25    21    22   ar
    26    22    23   ar
    27    23    26    1
    28    26    27    1
    29    23    24   ar
    30    24    30    1
    31    30    31    1
    32    24    25   ar
    33     5     1    1
    34    25    20   ar
    35    17     8    1
    36    16    11   ar
    37    33    36    1
    38    27    28    1
    39    27    29    1
@<TRIPOS>MOLECULE
*****
 36 39 0 0 0
SMALL
GASTEIGER

@<TRIPOS>ATOM
      1 C         143.9480  137.6671  155.7855 C.3     1  UNL1        0.1534
      2 C         144.0995  136.2313  155.3787 C.3     1  UNL1        0.0469
      3 C         143.2177  135.4028  156.2653 C.3     1  UNL1        0.0798
      4 C         142.5212  136.3265  157.2200 C.3     1  UNL1        0.1101
      5 N         142.9725  137.7260  156.9235 N.am    1  UNL1       -0.2680
      6 C         142.5266  138.9665  157.6393 C.2     1  UNL1        0.2495
      7 O         143.0674  140.3042  157.2295 O.2     1  UNL1       -0.2699
      8 N         143.0601  133.9122  156.2072 N.3     1  UNL1       -0.2682
      9 C         144.0778  133.0244  156.8600 C.3     1  UNL1        0.0772
     10 C         143.9201  131.5339  156.8019 C.3     1  UNL1        0.0465
     11 C         142.7448  130.9311  156.0911 C.ar    1  UNL1        0.0105
     12 C         141.7271  131.8189  155.4384 C.ar    1  UNL1       -0.0072
     13 C         140.5518  131.2161  154.7276 C.ar    1  UNL1       -0.0030
     14 C         140.3941  129.7256  154.6695 C.ar    1  UNL1        0.0028
     15 C         141.4119  128.8377  155.3223 C.ar    1  UNL1        0.0366
     16 C         142.5872  129.4405  156.0331 C.ar    1  UNL1        0.1345
     17 C         141.8847  133.3094  155.4964 C.3     1  UNL1        0.0989
     18 O         143.6049  128.5527  156.6858 O.3     1  UNL1       -0.4718
     19 C         143.3524  128.0062  158.0598 C.3     1  UNL1        0.2525
     20 C         141.5400  138.8692  158.7650 C.ar    1  UNL1        0.0566
     21 C         140.1290  139.3385  158.5682 C.ar    1  UNL1        0.0044
     22 C         139.1424  139.2413  159.6938 C.ar    1  UNL1        0.0002
     23 C         139.5668  138.6747  161.0163 C.ar    1  UNL1        0.0274
     24 C         140.9779  138.2054  161.2131 C.ar    1  UNL1        0.1361
     25 C         141.9645  138.3026  160.0874 C.ar    1  UNL1        0.0411
     26 C         138.5802  138.5774  162.1420 C.3     1  UNL1        0.0952
     27 N         138.5377  137.3463  162.9979 N.3     1  UNL1       -0.3174
     28 H         138.2339  136.5515  162.4355 H       1  UNL1        0.1192
     29 H         137.8827  137.4891  163.7666 H       1  UNL1        0.1192
     30 O         141.4022  137.6388  162.5355 O.3     1  UNL1       -0.4717
     31 C         142.4538  138.3355  163.3472 C.3     1  UNL1        0.2525
     32 C         146.3582  140.7876  155.3341 C.3     1  UNL1        0.1107
     33 N         145.6573  139.6163  155.9561 N.am    1  UNL1       -0.3013
     34 C         144.6489  138.8384  155.1635 C.2     1  UNL1        0.2407
     35 O         144.3414  139.2318  153.7491 O.2     1  UNL1       -0.2733
     36 H         145.8591  139.3581  156.8844 H       1  UNL1        0.1495
@<TRIPOS>BOND
     1    32    33    1
     2    33    34   am
     3    34    35    2
     4     1    34    1
     5     1     2    1
     6     2     3    1
     7     3     8    1
     8     8     9    1
     9     9    10    1
    10    10    11    1
    11    11    12   ar
    12    12    13   ar
    13    13    14   ar
    14    14    15   ar
    15    15    16   ar
    16    16    18    1
    17    18    19    1
    18    12    17    1
    19     3     4    1
    20     4     5    1
    21     5     6   am
    22     6     7    2
    23     6    20    1
    24    20    21   ar
    25    21    22   ar
    26    22    23   ar
    27    23    26    1
    28    26    27    1
    29    23    24   ar
    30    24    30    1
    31    30    31    1
    32    24    25   ar
    33     5     1    1
    34    25    20   ar
    35    17     8    1
    36    16    11   ar
    37    33    36    1
    38    27    28    1
    39    27    29    1
@<TRIPOS>MOLECULE
*****
 36 39 0 0 0
SMALL
GASTEIGER

@<TRIPOS>ATOM
      1 C         143.7372  138.0712  156.0411 C.3     1  UNL1        0.1534
      2 C         143.7632  136.7531  155.3257 C.3     1  UNL1        0.0469
      3 C         143.0401  135.7503  156.1752 C.3     1  UNL1        0.0798
      4 C         142.5672  136.4487  157.4156 C.3     1  UNL1        0.1101
      5 N         142.9981  137.8831  157.3327 N.am    1  UNL1       -0.2680
      6 C         142.7358  138.9433  158.3610 C.2     1  UNL1        0.2495
      7 O         143.2309  140.3418  158.1394 O.2     1  UNL1       -0.2699
      8 N         142.8272  134.3031  155.8427 N.3     1  UNL1       -0.2682
      9 C         141.4896  133.8355  155.3509 C.3     1  UNL1        0.0772
     10 C         141.2768  132.3884  155.0184 C.3     1  UNL1        0.0465
     11 C         142.4017  131.4090  155.1776 C.ar    1  UNL1        0.0105
     12 C         143.7393  131.8766  155.6694 C.ar    1  UNL1       -0.0072
     13 C         144.8642  130.8972  155.8286 C.ar    1  UNL1       -0.0030
     14 C         144.6514  129.4501  155.4960 C.ar    1  UNL1        0.0028
     15 C         143.3137  128.9824  155.0043 C.ar    1  UNL1        0.0366
     16 C         142.1888  129.9618  154.8451 C.ar    1  UNL1        0.1345
     17 C         143.9521  133.3237  156.0019 C.3     1  UNL1        0.0989
     18 O         140.8511  129.4942  154.3533 O.3     1  UNL1       -0.4718
     19 C         140.0045  128.6044  155.2146 C.3     1  UNL1        0.2525
     20 C         141.9785  138.6050  159.6108 C.ar    1  UNL1        0.0566
     21 C         142.7149  138.1339  160.8296 C.ar    1  UNL1        0.0044
     22 C         141.9576  137.7956  162.0794 C.ar    1  UNL1        0.0002
     23 C         140.4638  137.9284  162.1103 C.ar    1  UNL1        0.0274
     24 C         139.7273  138.3996  160.8915 C.ar    1  UNL1        0.1361
     25 C         140.4847  138.7379  159.6417 C.ar    1  UNL1        0.0411
     26 C         139.7065  137.5901  163.3602 C.3     1  UNL1        0.0952
     27 N         138.7030  138.5577  163.9142 N.3     1  UNL1       -0.3174
     28 H         139.1820  139.4017  164.2281 H       1  UNL1        0.1192
     29 H         138.2171  138.1295  164.7022 H       1  UNL1        0.1192
     30 O         138.2336  138.5324  160.9224 O.3     1  UNL1       -0.4717
     31 C         137.5922  139.8566  160.6306 C.3     1  UNL1        0.2525
     32 C         146.2211  141.1445  155.6730 C.3     1  UNL1        0.1107
     33 N         145.6144  139.8632  156.1632 N.am    1  UNL1       -0.3013
     34 C         144.3439  139.3525  155.5509 C.2     1  UNL1        0.2407
     35 O         143.6800  140.1230  154.4484 O.2     1  UNL1       -0.2733
     36 H         146.0502  139.3575  156.8868 H       1  UNL1        0.1495
@<TRIPOS>BOND
     1    32    33    1
     2    33    34   am
     3    34    35    2
     4     1    34    1
     5     1     2    1
     6     2     3    1
     7     3     8    1
     8     8     9    1
     9     9    10    1
    10    10    11    1
    11    11    12   ar
    12    12    13   ar
    13    13    14   ar
    14    14    15   ar
    15    15    16   ar
    16    16    18    1
    17    18    19    1
    18    12    17    1
    19     3     4    1
    20     4     5    1
    21     5     6   am
    22     6     7    2
    23     6    20    1
    24    20    21   ar
    25    21    22   ar
    26    22    23   ar
    27    23    26    1
    28    26    27    1
    29    23    24   ar
    30    24    30    1
    31    30    31    1
    32    24    25   ar
    33     5     1    1
    34    25    20   ar
    35    17     8    1
    36    16    11   ar
    37    33    36    1
    38    27    28    1
    39    27    29    1
@<TRIPOS>MOLECULE
*****
 36 39 0 0 0
SMALL
GASTEIGER

@<TRIPOS>ATOM
      1 C         143.6089  139.8507  157.0822 C.3     1  UNL1        0.1534
      2 C         142.9483  140.3303  158.3405 C.3     1  UNL1        0.0469
      3 C         142.1257  139.2031  158.8909 C.3     1  UNL1        0.0798
      4 C         142.2780  138.0268  157.9727 C.3     1  UNL1        0.1101
      5 N         143.1947  138.4270  156.8548 N.am    1  UNL1       -0.2680
      6 C         143.6221  137.5564  155.7105 C.2     1  UNL1        0.2495
      7 O         144.5481  138.0972  154.6618 O.2     1  UNL1       -0.2699
      8 N         141.2964  139.2450  160.1401 N.3     1  UNL1       -0.2682
      9 C         140.2486  140.3048  160.3097 C.3     1  UNL1        0.0772
     10 C         139.4194  140.3466  161.5589 C.3     1  UNL1        0.0465
     11 C         139.6380  139.3285  162.6386 C.ar    1  UNL1        0.0105
     12 C         140.6858  138.2687  162.4691 C.ar    1  UNL1       -0.0072
     13 C         140.9044  137.2506  163.5488 C.ar    1  UNL1       -0.0030
     14 C         140.0752  137.2924  164.7980 C.ar    1  UNL1        0.0028
     15 C         139.0273  138.3523  164.9676 C.ar    1  UNL1        0.0366
     16 C         138.8087  139.3703  163.8879 C.ar    1  UNL1        0.1345
     17 C         141.5150  138.2269  161.2199 C.3     1  UNL1        0.0989
     18 O         137.7609  140.4302  164.0574 O.3     1  UNL1       -0.4718
     19 C         138.1120  141.7344  164.7101 C.3     1  UNL1        0.2525
     20 C         143.1234  136.1450  155.6150 C.ar    1  UNL1        0.0566
     21 C         142.1738  135.7575  154.5205 C.ar    1  UNL1        0.0044
     22 C         141.6751  134.3461  154.4250 C.ar    1  UNL1        0.0002
     23 C         142.1262  133.3221  155.4240 C.ar    1  UNL1        0.0274
     24 C         143.0758  133.7095  156.5185 C.ar    1  UNL1        0.1361
     25 C         143.5745  135.1209  156.6140 C.ar    1  UNL1        0.0411
     26 C         141.6275  131.9105  155.3284 C.3     1  UNL1        0.0952
     27 N         142.5736  130.7652  155.5358 N.3     1  UNL1       -0.3174
     28 H         143.2635  130.7537  154.7846 H       1  UNL1        0.1192
     29 H         142.0522  129.8885  155.5321 H       1  UNL1        0.1192
     30 O         143.5268  132.6856  157.5175 O.3     1  UNL1       -0.4717
     31 C         144.9825  132.5588  157.8565 C.3     1  UNL1        0.2525
     32 C         146.9044  141.1448  155.2890 C.3     1  UNL1        0.1107
     33 N         145.9900  140.3419  156.1660 N.am    1  UNL1       -0.3013
     34 C         144.5233  140.6537  156.2051 C.2     1  UNL1        0.2407
     35 O         143.9709  141.7685  155.3672 O.2     1  UNL1       -0.2733
     36 H         146.3525  139.6102  156.7160 H       1  UNL1        0.1495
@<TRIPOS>BOND
     1    32    33    1
     2    33    34   am
     3    34    35    2
     4     1    34    1
     5     1     2    1
     6     2     3    1
     7     3     8    1
     8     8     9    1
     9     9    10    1
    10    10    11    1
    11    11    12   ar
    12    12    13   ar
    13    13    14   ar
    14    14    15   ar
    15    15    16   ar
    16    16    18    1
    17    18    19    1
    18    12    17    1
    19     3     4    1
    20     4     5    1
    21     5     6   am
    22     6     7    2
    23     6    20    1
    24    20    21   ar
    25    21    22   ar
    26    22    23   ar
    27    23    26    1
    28    26    27    1
    29    23    24   ar
    30    24    30    1
    31    30    31    1
    32    24    25   ar
    33     5     1    1
    34    25    20   ar
    35    17     8    1
    36    16    11   ar
    37    33    36    1
    38    27    28    1
    39    27    29    1
@<TRIPOS>MOLECULE
*****
 36 39 0 0 0
SMALL
GASTEIGER

@<TRIPOS>ATOM
      1 C         141.6313  142.8668  161.9642 C.3     1  UNL1        0.1534
      2 C         141.0198  143.0004  160.6010 C.3     1  UNL1        0.0469
      3 C         139.8688  142.0425  160.5133 C.3     1  UNL1        0.0798
      4 C         139.7688  141.3169  161.8223 C.3     1  UNL1        0.1101
      5 N         140.8581  141.8264  162.7190 N.am    1  UNL1       -0.2680
      6 C         141.1269  141.3747  164.1239 C.2     1  UNL1        0.2495
      7 O         142.2582  141.9783  164.9023 O.2     1  UNL1       -0.2699
      8 N         138.9747  141.8449  159.3252 N.3     1  UNL1       -0.2682
      9 C         138.2120  140.5633  159.1654 C.3     1  UNL1        0.0772
     10 C         137.3180  140.3657  157.9773 C.3     1  UNL1        0.0465
     11 C         137.1867  141.4499  156.9489 C.ar    1  UNL1        0.0105
     12 C         137.9494  142.7315  157.1087 C.ar    1  UNL1       -0.0072
     13 C         137.8181  143.8156  156.0804 C.ar    1  UNL1       -0.0030
     14 C         136.9241  143.6181  154.8923 C.ar    1  UNL1        0.0028
     15 C         136.1613  142.3364  154.7325 C.ar    1  UNL1        0.0366
     16 C         136.2926  141.2523  155.7608 C.ar    1  UNL1        0.1345
     17 C         138.8434  142.9290  158.2968 C.3     1  UNL1        0.0989
     18 O         135.5299  139.9706  155.6010 O.3     1  UNL1       -0.4718
     19 C         134.0503  140.0039  155.3563 C.3     1  UNL1        0.2525
     20 C         140.2646  140.3193  164.7504 C.ar    1  UNL1        0.0566
     21 C         139.8048  139.1461  163.9368 C.ar    1  UNL1        0.0044
     22 C         138.9424  138.0907  164.5633 C.ar    1  UNL1        0.0002
     23 C         138.5398  138.2086  166.0035 C.ar    1  UNL1        0.0274
     24 C         138.9997  139.3819  166.8171 C.ar    1  UNL1        0.1361
     25 C         139.8620  140.4372  166.1906 C.ar    1  UNL1        0.0411
     26 C         137.6774  137.1532  166.6300 C.3     1  UNL1        0.0952
     27 N         136.6169  137.5401  167.6176 N.3     1  UNL1       -0.3174
     28 H         137.0556  137.9217  168.4557 H       1  UNL1        0.1192
     29 H         136.0672  136.7176  167.8661 H       1  UNL1        0.1192
     30 O         138.5971  139.4997  168.2572 O.3     1  UNL1       -0.4717
     31 C         139.4413  140.2940  169.2093 C.3     1  UNL1        0.2525
     32 C         143.8133  145.3669  164.1409 C.3     1  UNL1        0.1107
     33 N         142.6355  144.5955  163.6234 N.am    1  UNL1       -0.3013
     34 C         142.8090  143.6382  162.4817 C.2     1  UNL1        0.2407
     35 O         144.1602  143.4522  161.8575 O.2     1  UNL1       -0.2733
     36 H         141.7487  144.7176  164.0330 H       1  UNL1        0.1495
@<TRIPOS>BOND
     1    32    33    1
     2    33    34   am
     3    34    35    2
     4     1    34    1
     5     1     2    1
     6     2     3    1
     7     3     8    1
     8     8     9    1
     9     9    10    1
    10    10    11    1
    11    11    12   ar
    12    12    13   ar
    13    13    14   ar
    14    14    15   ar
    15    15    16   ar
    16    16    18    1
    17    18    19    1
    18    12    17    1
    19     3     4    1
    20     4     5    1
    21     5     6   am
    22     6     7    2
    23     6    20    1
    24    20    21   ar
    25    21    22   ar
    26    22    23   ar
    27    23    26    1
    28    26    27    1
    29    23    24   ar
    30    24    30    1
    31    30    31    1
    32    24    25   ar
    33     5     1    1
    34    25    20   ar
    35    17     8    1
    36    16    11   ar
    37    33    36    1
    38    27    28    1
    39    27    29    1
@<TRIPOS>MOLECULE
*****
 36 39 0 0 0
SMALL
GASTEIGER

@<TRIPOS>ATOM
      1 C         143.2072  139.2692  156.8278 C.3     1  UNL1        0.1534
      2 C         143.0079  139.6662  158.2605 C.3     1  UNL1        0.0469
      3 C         142.6607  138.4321  159.0394 C.3     1  UNL1        0.0798
      4 C         142.6454  137.2725  158.0881 C.3     1  UNL1        0.1101
      5 N         142.9831  137.7898  156.7212 N.am    1  UNL1       -0.2680
      6 C         143.0799  136.9715  155.4678 C.2     1  UNL1        0.2495
      7 O         143.4289  137.6309  154.1666 O.2     1  UNL1       -0.2699
      8 N         142.3784  138.3689  160.5113 N.3     1  UNL1       -0.2682
      9 C         143.4962  138.5374  161.4973 C.3     1  UNL1        0.0772
     10 C         143.2138  138.4741  162.9691 C.3     1  UNL1        0.0465
     11 C         141.8137  138.2424  163.4549 C.ar    1  UNL1        0.0105
     12 C         140.6960  138.0739  162.4689 C.ar    1  UNL1       -0.0072
     13 C         139.2959  137.8421  162.9547 C.ar    1  UNL1       -0.0030
     14 C         139.0135  137.7789  164.4265 C.ar    1  UNL1        0.0028
     15 C         140.1313  137.9474  165.4126 C.ar    1  UNL1        0.0366
     16 C         141.5314  138.1791  164.9268 C.ar    1  UNL1        0.1345
     17 C         140.9783  138.1371  160.9971 C.3     1  UNL1        0.0989
     18 O         142.6491  138.3476  165.9127 O.3     1  UNL1       -0.4718
     19 C         142.6400  139.5057  166.8662 C.3     1  UNL1        0.2525
     20 C         142.8276  135.4936  155.5157 C.ar    1  UNL1        0.0566
     21 C         141.4832  134.9495  155.1330 C.ar    1  UNL1        0.0044
     22 C         141.2309  133.4717  155.1809 C.ar    1  UNL1        0.0002
     23 C         142.3230  132.5379  155.6114 C.ar    1  UNL1        0.0274
     24 C         143.6675  133.0820  155.9941 C.ar    1  UNL1        0.1361
     25 C         143.9198  134.5599  155.9462 C.ar    1  UNL1        0.0411
     26 C         142.0707  131.0600  155.6593 C.3     1  UNL1        0.0952
     27 N         141.0940  130.4347  154.7080 N.3     1  UNL1       -0.3174
     28 H         140.1545  130.7750  154.9128 H       1  UNL1        0.1192
     29 H         141.1187  129.4205  154.8131 H       1  UNL1        0.1192
     30 O         144.7596  132.1483  156.4246 O.3     1  UNL1       -0.4717
     31 C         145.2603  132.1810  157.8381 C.3     1  UNL1        0.2525
     32 C         142.9086  141.4460  153.5229 C.3     1  UNL1        0.1107
     33 N         142.5485  140.5253  154.6509 N.am    1  UNL1       -0.3013
     34 C         143.5672  140.1899  155.6997 C.2     1  UNL1        0.2407
     35 O         144.9460  140.7753  155.6203 O.2     1  UNL1       -0.2733
     36 H         141.6436  140.1411  154.7031 H       1  UNL1        0.1495
@<TRIPOS>BOND
     1    32    33    1
     2    33    34   am
     3    34    35    2
     4     1    34    1
     5     1     2    1
     6     2     3    1
     7     3     8    1
     8     8     9    1
     9     9    10    1
    10    10    11    1
    11    11    12   ar
    12    12    13   ar
    13    13    14   ar
    14    14    15   ar
    15    15    16   ar
    16    16    18    1
    17    18    19    1
    18    12    17    1
    19     3     4    1
    20     4     5    1
    21     5     6   am
    22     6     7    2
    23     6    20    1
    24    20    21   ar
    25    21    22   ar
    26    22    23   ar
    27    23    26    1
    28    26    27    1
    29    23    24   ar
    30    24    30    1
    31    30    31    1
    32    24    25   ar
    33     5     1    1
    34    25    20   ar
    35    17     8    1
    36    16    11   ar
    37    33    36    1
    38    27    28    1
    39    27    29    1
@<TRIPOS>MOLECULE
*****
 36 39 0 0 0
SMALL
GASTEIGER

@<TRIPOS>ATOM
      1 C         140.6058  138.1425  156.5902 C.3     1  UNL1        0.1534
      2 C         140.9304  138.9081  157.8386 C.3     1  UNL1        0.0469
      3 C         141.9143  138.1022  158.6339 C.3     1  UNL1        0.0798
      4 C         142.1978  136.8385  157.8771 C.3     1  UNL1        0.1101
      5 N         141.3890  136.8634  156.6140 N.am    1  UNL1       -0.2680
      6 C         141.3674  135.7966  155.5598 C.2     1  UNL1        0.2495
      7 O         140.5045  135.9610  154.3439 O.2     1  UNL1       -0.2699
      8 N         142.5102  138.4917  159.9543 N.3     1  UNL1       -0.2682
      9 C         143.7049  139.3975  160.0000 C.3     1  UNL1        0.0772
     10 C         144.3006  139.7869  161.3204 C.3     1  UNL1        0.0465
     11 C         143.7018  139.2705  162.5950 C.ar    1  UNL1        0.0105
     12 C         142.5071  138.3646  162.5493 C.ar    1  UNL1       -0.0072
     13 C         141.9083  137.8481  163.8239 C.ar    1  UNL1       -0.0030
     14 C         142.5041  138.2375  165.1442 C.ar    1  UNL1        0.0028
     15 C         143.6988  139.1435  165.1900 C.ar    1  UNL1        0.0366
     16 C         144.2977  139.6599  163.9154 C.ar    1  UNL1        0.1345
     17 C         141.9113  137.9752  161.2289 C.3     1  UNL1        0.0989
     18 O         145.4923  140.5658  163.9611 O.3     1  UNL1       -0.4718
     19 C         145.3052  142.0471  164.1057 C.3     1  UNL1        0.2525
     20 C         142.2086  134.5652  155.7215 C.ar    1  UNL1        0.0566
     21 C         143.6661  134.6909  156.0529 C.ar    1  UNL1        0.0044
     22 C         144.5073  133.4596  156.2146 C.ar    1  UNL1        0.0002
     23 C         143.8910  132.1026  156.0448 C.ar    1  UNL1        0.0274
     24 C         142.4335  131.9769  155.7133 C.ar    1  UNL1        0.1361
     25 C         141.5923  133.2082  155.5516 C.ar    1  UNL1        0.0411
     26 C         144.7323  130.8712  156.2064 C.3     1  UNL1        0.0952
     27 N         144.9920  129.9802  155.0280 N.3     1  UNL1       -0.3174
     28 H         144.1170  129.5509  154.7271 H       1  UNL1        0.1192
     29 H         145.6550  129.2516  155.2922 H       1  UNL1        0.1192
     30 O         141.8173  130.6200  155.5434 O.3     1  UNL1       -0.4717
     31 C         141.0849  130.2818  154.2788 C.3     1  UNL1        0.2525
     32 C         139.2564  139.4330  153.0882 C.3     1  UNL1        0.1107
     33 N         140.1989  138.9963  154.1704 N.am    1  UNL1       -0.3013
     34 C         139.6633  138.5793  155.5081 C.2     1  UNL1        0.2407
     35 O         138.1854  138.5990  155.7636 O.2     1  UNL1       -0.2733
     36 H         141.1689  138.9833  154.0027 H       1  UNL1        0.1495
@<TRIPOS>BOND
     1    32    33    1
     2    33    34   am
     3    34    35    2
     4     1    34    1
     5     1     2    1
     6     2     3    1
     7     3     8    1
     8     8     9    1
     9     9    10    1
    10    10    11    1
    11    11    12   ar
    12    12    13   ar
    13    13    14   ar
    14    14    15   ar
    15    15    16   ar
    16    16    18    1
    17    18    19    1
    18    12    17    1
    19     3     4    1
    20     4     5    1
    21     5     6   am
    22     6     7    2
    23     6    20    1
    24    20    21   ar
    25    21    22   ar
    26    22    23   ar
    27    23    26    1
    28    26    27    1
    29    23    24   ar
    30    24    30    1
    31    30    31    1
    32    24    25   ar
    33     5     1    1
    34    25    20   ar
    35    17     8    1
    36    16    11   ar
    37    33    36    1
    38    27    28    1
    39    27    29    1
@<TRIPOS>MOLECULE
*****
 36 39 0 0 0
SMALL
GASTEIGER

@<TRIPOS>ATOM
      1 C         139.0561  139.4616  156.0117 C.3     1  UNL1        0.1534
      2 C         138.5759  140.0621  157.2996 C.3     1  UNL1        0.0469
      3 C         139.1862  139.2861  158.4289 C.3     1  UNL1        0.0798
      4 C         140.0436  138.2059  157.8389 C.3     1  UNL1        0.1101
      5 N         139.9632  138.3143  156.3450 N.am    1  UNL1       -0.2680
      6 C         140.6664  137.4307  155.3577 C.2     1  UNL1        0.2495
      7 O         140.4895  137.6609  153.8861 O.2     1  UNL1       -0.2699
      8 N         138.9761  139.5448  159.8914 N.3     1  UNL1       -0.2682
      9 C         138.6136  140.9211  160.3651 C.3     1  UNL1        0.0772
     10 C         138.4034  141.1798  161.8275 C.3     1  UNL1        0.0465
     11 C         138.5557  140.0622  162.8164 C.ar    1  UNL1        0.0105
     12 C         138.9182  138.6859  162.3427 C.ar    1  UNL1       -0.0072
     13 C         139.0704  137.5683  163.3315 C.ar    1  UNL1       -0.0030
     14 C         138.8603  137.8270  164.7940 C.ar    1  UNL1        0.0028
     15 C         138.4978  139.2034  165.2677 C.ar    1  UNL1        0.0366
     16 C         138.3455  140.3210  164.2789 C.ar    1  UNL1        0.1345
     17 C         139.1283  138.4272  160.8803 C.3     1  UNL1        0.0989
     18 O         137.9831  141.6973  164.7526 O.3     1  UNL1       -0.4718
     19 C         139.0620  142.6709  165.1242 C.3     1  UNL1        0.2525
     20 C         141.5465  136.3168  155.8421 C.ar    1  UNL1        0.0566
     21 C         142.6239  136.5955  156.8478 C.ar    1  UNL1        0.0044
     22 C         143.5040  135.4816  157.3322 C.ar    1  UNL1        0.0002
     23 C         143.3068  134.0890  156.8107 C.ar    1  UNL1        0.0274
     24 C         142.2294  133.8103  155.8050 C.ar    1  UNL1        0.1361
     25 C         141.3493  134.9242  155.3206 C.ar    1  UNL1        0.0411
     26 C         144.1870  132.9751  157.2951 C.3     1  UNL1        0.0952
     27 N         145.1505  132.3167  156.3528 N.3     1  UNL1       -0.3174
     28 H         144.6319  131.8213  155.6274 H       1  UNL1        0.1192
     29 H         145.7312  131.6548  156.8677 H       1  UNL1        0.1192
     30 O         142.0322  132.4178  155.2836 O.3     1  UNL1       -0.4717
     31 C         142.4186  132.0832  153.8734 C.3     1  UNL1        0.2525
     32 C         137.4219  139.5601  152.3965 C.3     1  UNL1        0.1107
     33 N         137.7851  139.0951  153.7755 N.am    1  UNL1       -0.3013
     34 C         138.6929  139.9266  154.6326 C.2     1  UNL1        0.2407
     35 O         139.2377  141.2230  154.1106 O.2     1  UNL1       -0.2733
     36 H         137.4276  138.2442  154.1182 H       1  UNL1        0.1495
@<TRIPOS>BOND
     1    32    33    1
     2    33    34   am
     3    34    35    2
     4     1    34    1
     5     1     2    1
     6     2     3    1
     7     3     8    1
     8     8     9    1
     9     9    10    1
    10    10    11    1
    11    11    12   ar
    12    12    13   ar
    13    13    14   ar
    14    14    15   ar
    15    15    16   ar
    16    16    18    1
    17    18    19    1
    18    12    17    1
    19     3     4    1
    20     4     5    1
    21     5     6   am
    22     6     7    2
    23     6    20    1
    24    20    21   ar
    25    21    22   ar
    26    22    23   ar
    27    23    26    1
    28    26    27    1
    29    23    24   ar
    30    24    30    1
    31    30    31    1
    32    24    25   ar
    33     5     1    1
    34    25    20   ar
    35    17     8    1
    36    16    11   ar
    37    33    36    1
    38    27    28    1
    39    27    29    1
@<TRIPOS>MOLECULE
*****
 36 39 0 0 0
SMALL
GASTEIGER

@<TRIPOS>ATOM
      1 C         140.0014  138.9862  156.6004 C.3     1  UNL1        0.1534
      2 C         140.3364  137.7457  155.8265 C.3     1  UNL1        0.0469
      3 C         141.3736  136.9842  156.5975 C.3     1  UNL1        0.0798
      4 C         141.6796  137.7541  157.8480 C.3     1  UNL1        0.1101
      5 N         140.8315  138.9913  157.8498 N.am    1  UNL1       -0.2680
      6 C         140.8163  140.0482  158.9142 C.2     1  UNL1        0.2495
      7 O         139.9105  141.2361  158.7786 O.2     1  UNL1       -0.2699
      8 N         141.9956  135.6816  156.1896 N.3     1  UNL1       -0.2682
      9 C         141.6552  135.0710  154.8625 C.3     1  UNL1        0.0772
     10 C         142.2772  133.7684  154.4546 C.3     1  UNL1        0.0465
     11 C         143.2395  133.0764  155.3739 C.ar    1  UNL1        0.0105
     12 C         143.5799  133.6870  156.7010 C.ar    1  UNL1       -0.0072
     13 C         144.5422  132.9950  157.6203 C.ar    1  UNL1       -0.0030
     14 C         145.1642  131.6924  157.2124 C.ar    1  UNL1        0.0028
     15 C         144.8238  131.0818  155.8853 C.ar    1  UNL1        0.0366
     16 C         143.8615  131.7738  154.9660 C.ar    1  UNL1        0.1345
     17 C         142.9579  134.9896  157.1089 C.3     1  UNL1        0.0989
     18 O         143.5211  131.1632  153.6389 O.3     1  UNL1       -0.4718
     19 C         143.5636  129.6738  153.4655 C.3     1  UNL1        0.2525
     20 C         141.7068  139.9172  160.1140 C.ar    1  UNL1        0.0566
     21 C         143.1427  140.3432  160.0324 C.ar    1  UNL1        0.0044
     22 C         144.0333  140.2122  161.2322 C.ar    1  UNL1        0.0002
     23 C         143.4880  139.6551  162.5138 C.ar    1  UNL1        0.0274
     24 C         142.0521  139.2291  162.5954 C.ar    1  UNL1        0.1361
     25 C         141.1615  139.3601  161.3956 C.ar    1  UNL1        0.0411
     26 C         144.3786  139.5241  163.7137 C.3     1  UNL1        0.0952
     27 N         143.8901  139.9640  165.0619 N.3     1  UNL1       -0.3174
     28 H         143.7529  140.9747  165.0607 H       1  UNL1        0.1192
     29 H         144.5796  139.7153  165.7712 H       1  UNL1        0.1192
     30 O         141.5068  138.6721  163.8769 O.3     1  UNL1       -0.4717
     31 C         141.2503  137.1998  164.0057 C.3     1  UNL1        0.2525
     32 C         136.7278  141.2290  156.5416 C.3     1  UNL1        0.1107
     33 N         137.7189  140.1782  156.9460 N.am    1  UNL1       -0.3013
     34 C         139.0103  140.0370  156.1961 C.2     1  UNL1        0.2407
     35 O         139.3106  140.9466  155.0417 O.2     1  UNL1       -0.2733
     36 H         137.5218  139.5812  157.7036 H       1  UNL1        0.1495
@<TRIPOS>BOND
     1    32    33    1
     2    33    34   am
     3    34    35    2
     4     1    34    1
     5     1     2    1
     6     2     3    1
     7     3     8    1
     8     8     9    1
     9     9    10    1
    10    10    11    1
    11    11    12   ar
    12    12    13   ar
    13    13    14   ar
    14    14    15   ar
    15    15    16   ar
    16    16    18    1
    17    18    19    1
    18    12    17    1
    19     3     4    1
    20     4     5    1
    21     5     6   am
    22     6     7    2
    23     6    20    1
    24    20    21   ar
    25    21    22   ar
    26    22    23   ar
    27    23    26    1
    28    26    27    1
    29    23    24   ar
    30    24    30    1
    31    30    31    1
    32    24    25   ar
    33     5     1    1
    34    25    20   ar
    35    17     8    1
    36    16    11   ar
    37    33    36    1
    38    27    28    1
    39    27    29    1
