@<TRIPOS>MOLECULE
*****
 35 39 0 0 0
SMALL
GASTEIGER

@<TRIPOS>ATOM
      1 C         138.3539  138.6262  166.3777 C.3     1  UNL1        0.0002
      2 C         137.2614  138.2086  167.3168 C.3     1  UNL1        0.0001
      3 C         138.3363  139.1440  167.7854 C.3     1  UNL1        0.0037
      4 N         140.2767  138.4529  162.3129 N.pl3   1  UNL1       -0.2782
      5 C         140.6849  137.4785  163.3778 C.3     1  UNL1        0.0936
      6 C         140.0439  137.5363  164.7327 C.3     1  UNL1        0.0216
      7 C         138.9948  138.5684  165.0228 C.3     1  UNL1        0.0034
      8 C         138.5867  139.5428  163.9578 C.3     1  UNL1        0.0216
      9 C         139.2277  139.4850  162.6029 C.3     1  UNL1        0.0936
     10 C         142.1996  138.2795  158.2481 C.ar    1  UNL1        0.0457
     11 C         140.8842  138.9779  158.4264 C.ar    1  UNL1        0.1015
     12 N         140.2432  139.0357  159.7813 N.ar    1  UNL1       -0.2123
     13 C         140.9177  138.3951  160.9580 C.ar    1  UNL1        0.2202
     14 N         142.2331  137.6966  160.7797 N.ar    1  UNL1       -0.2123
     15 C         142.8740  137.6389  159.4248 C.ar    1  UNL1        0.1015
     16 C         142.8405  138.2217  156.8932 C.3     1  UNL1        0.1718
     17 C         144.1944  136.4235  155.5958 C.3     1  UNL1        0.1746
     18 O         142.8902  136.9245  156.1417 O.3     1  UNL1       -0.3462
     19 C         138.9466  139.9829  168.8686 C.3     1  UNL1        0.0473
     20 C         140.2784  140.6377  168.6497 C.3     1  UNL1        0.2054
     21 O         141.4991  139.7965  168.4208 O.3     1  UNL1       -0.4754
     22 C         142.1399  139.7580  167.0650 C.ar    1  UNL1        0.1408
     23 C         143.2397  138.7778  166.7829 C.ar    1  UNL1        0.0367
     24 C         143.8806  138.7393  165.4273 C.ar    1  UNL1        0.0016
     25 C         143.4216  139.6810  164.3538 C.ar    1  UNL1        0.0146
     26 C         142.3218  140.6612  164.6359 C.ar    1  UNL1        0.1396
     27 F         141.8628  141.6029  163.5622 F       1  UNL1       -0.2044
     28 C         141.6809  140.6997  165.9915 C.ar    1  UNL1        0.0662
     29 C         144.0624  139.6425  162.9980 C.3     1  UNL1        0.1138
     30 C         144.7915  140.8461  162.4787 C.2     1  UNL1        0.2301
     31 O         145.9940  141.3673  163.2084 O.2     1  UNL1       -0.2745
     32 N         144.3180  141.5286  161.2297 N.am    1  UNL1       -0.2791
     33 C         144.7718  142.7153  160.4323 C.3     1  UNL1        0.0952
     34 C         143.6485  142.4937  159.4633 C.3     1  UNL1        0.0430
     35 C         143.1947  141.3069  160.2606 C.3     1  UNL1        0.0952
@<TRIPOS>BOND
     1    17    18    1
     2    18    16    1
     3    16    10    1
     4    10    11   ar
     5    11    12   ar
     6    12    13   ar
     7    13     4    1
     8     4     5    1
     9     5     6    1
    10     6     7    1
    11     1     7    1
    12     1     2    1
    13     2     3    1
    14     3    19    1
    15    19    20    1
    16    20    21    1
    17    21    22    1
    18    22    23   ar
    19    23    24   ar
    20    24    25   ar
    21    25    29    1
    22    29    30    1
    23    30    31    2
    24    30    32   am
    25    32    33    1
    26    33    34    1
    27    34    35    1
    28    25    26   ar
    29    26    27    1
    30    26    28   ar
    31     7     8    1
    32     8     9    1
    33    13    14   ar
    34    14    15   ar
    35    15    10   ar
    36     9     4    1
    37     3     1    1
    38    28    22   ar
    39    35    32    1
@<TRIPOS>MOLECULE
*****
 35 39 0 0 0
SMALL
GASTEIGER

@<TRIPOS>ATOM
      1 C         142.7337  138.7392  165.9219 C.3     1  UNL1        0.0002
      2 C         143.8269  137.9822  166.6160 C.3     1  UNL1        0.0001
      3 C         142.9700  138.9401  167.3894 C.3     1  UNL1        0.0037
      4 N         140.4308  139.7024  162.1776 N.pl3   1  UNL1       -0.2782
      5 C         140.1882  138.4078  162.8952 C.3     1  UNL1        0.0936
      6 C         140.9558  138.0867  164.1432 C.3     1  UNL1        0.0216
      7 C         141.9661  139.0603  164.6738 C.3     1  UNL1        0.0034
      8 C         142.2087  140.3550  163.9563 C.3     1  UNL1        0.0216
      9 C         141.4411  140.6760  162.7082 C.3     1  UNL1        0.0936
     10 C         138.1280  140.6657  158.4334 C.ar    1  UNL1        0.0457
     11 C         139.6031  140.9305  158.4957 C.ar    1  UNL1        0.1015
     12 N         140.3707  140.6094  159.7438 N.ar    1  UNL1       -0.2123
     13 C         139.6632  140.0235  160.9296 C.ar    1  UNL1        0.2202
     14 N         138.1881  139.7587  160.8673 N.ar    1  UNL1       -0.2123
     15 C         137.4205  140.0798  159.6192 C.ar    1  UNL1        0.1015
     16 C         137.3604  140.9868  157.1854 C.3     1  UNL1        0.1718
     17 C         135.1478  140.8901  155.8271 C.3     1  UNL1        0.1746
     18 O         135.9742  140.4454  156.9973 O.3     1  UNL1       -0.3462
     19 C         142.6117  139.6090  168.6833 C.3     1  UNL1        0.0473
     20 C         141.1988  140.0450  168.9361 C.3     1  UNL1        0.2054
     21 O         140.1228  139.7132  167.9452 O.3     1  UNL1       -0.4754
     22 C         139.7172  140.7226  166.9123 C.ar    1  UNL1        0.1408
     23 C         140.2768  142.1134  166.9626 C.ar    1  UNL1        0.0367
     24 C         139.8712  143.1228  165.9298 C.ar    1  UNL1        0.0016
     25 C         138.9062  142.7413  164.8468 C.ar    1  UNL1        0.0146
     26 C         138.3466  141.3505  164.7965 C.ar    1  UNL1        0.1396
     27 F         137.3815  140.9691  163.7133 F       1  UNL1       -0.2044
     28 C         138.7522  140.3411  165.8292 C.ar    1  UNL1        0.0662
     29 C         138.5006  143.7507  163.8139 C.3     1  UNL1        0.1138
     30 C         139.0043  143.6274  162.4064 C.2     1  UNL1        0.2301
     31 O         138.0695  143.2128  161.3089 O.2     1  UNL1       -0.2745
     32 N         140.4426  143.9187  162.0963 N.am    1  UNL1       -0.2791
     33 C         141.2838  143.9051  160.8544 C.3     1  UNL1        0.0952
     34 C         142.4768  144.3307  161.6579 C.3     1  UNL1        0.0430
     35 C         141.6357  144.3444  162.8998 C.3     1  UNL1        0.0952
@<TRIPOS>BOND
     1    17    18    1
     2    18    16    1
     3    16    10    1
     4    10    11   ar
     5    11    12   ar
     6    12    13   ar
     7    13     4    1
     8     4     5    1
     9     5     6    1
    10     6     7    1
    11     1     7    1
    12     1     2    1
    13     2     3    1
    14     3    19    1
    15    19    20    1
    16    20    21    1
    17    21    22    1
    18    22    23   ar
    19    23    24   ar
    20    24    25   ar
    21    25    29    1
    22    29    30    1
    23    30    31    2
    24    30    32   am
    25    32    33    1
    26    33    34    1
    27    34    35    1
    28    25    26   ar
    29    26    27    1
    30    26    28   ar
    31     7     8    1
    32     8     9    1
    33    13    14   ar
    34    14    15   ar
    35    15    10   ar
    36     9     4    1
    37     3     1    1
    38    28    22   ar
    39    35    32    1
@<TRIPOS>MOLECULE
*****
 35 39 0 0 0
SMALL
GASTEIGER

@<TRIPOS>ATOM
      1 C         138.8572  139.0529  166.2054 C.3     1  UNL1        0.0002
      2 C         137.8248  138.7630  167.2542 C.3     1  UNL1        0.0001
      3 C         138.9959  139.6428  167.5775 C.3     1  UNL1        0.0037
      4 N         140.4051  138.5334  162.0121 N.pl3   1  UNL1       -0.2782
      5 C         140.5236  137.4108  162.9998 C.3     1  UNL1        0.0936
      6 C         140.0076  137.5839  164.3975 C.3     1  UNL1        0.0216
      7 C         139.3732  138.8798  164.8076 C.3     1  UNL1        0.0034
      8 C         139.2547  140.0024  163.8200 C.3     1  UNL1        0.0216
      9 C         139.7707  139.8292  162.4222 C.3     1  UNL1        0.0936
     10 C         141.9531  138.0139  157.8188 C.ar    1  UNL1        0.0457
     11 C         142.8608  137.7737  158.9885 C.ar    1  UNL1        0.1015
     12 N         142.3448  137.9469  160.3862 N.ar    1  UNL1       -0.2123
     13 C         140.9211  138.3602  160.6143 C.ar    1  UNL1        0.2202
     14 N         140.0134  138.6004  159.4446 N.ar    1  UNL1       -0.2123
     15 C         140.5293  138.4272  158.0468 C.ar    1  UNL1        0.1015
     16 C         142.4691  137.8407  156.4210 C.3     1  UNL1        0.1718
     17 C         144.6398  138.3302  155.0800 C.3     1  UNL1        0.1746
     18 O         143.9314  137.6044  156.1852 O.3     1  UNL1       -0.3462
     19 C         139.7520  140.4914  168.5564 C.3     1  UNL1        0.0473
     20 C         140.8762  139.8974  169.3523 C.3     1  UNL1        0.2054
     21 O         142.2935  140.0699  168.8926 O.3     1  UNL1       -0.4754
     22 C         142.5771  140.5987  167.5178 C.ar    1  UNL1        0.1408
     23 C         142.8078  142.0664  167.3116 C.ar    1  UNL1        0.0367
     24 C         143.0913  142.5952  165.9369 C.ar    1  UNL1        0.0016
     25 C         143.1441  141.6563  164.7683 C.ar    1  UNL1        0.0146
     26 C         142.9133  140.1886  164.9745 C.ar    1  UNL1        0.1396
     27 F         142.9661  139.2496  163.8059 F       1  UNL1       -0.2044
     28 C         142.6298  139.6598  166.3493 C.ar    1  UNL1        0.0662
     29 C         143.4276  142.1851  163.3935 C.3     1  UNL1        0.1138
     30 C         143.1163  143.6141  163.0606 C.2     1  UNL1        0.2301
     31 O         144.2182  144.5462  162.6517 O.2     1  UNL1       -0.2745
     32 N         141.7031  144.1112  163.1367 N.am    1  UNL1       -0.2791
     33 C         141.0265  145.4266  162.8877 C.3     1  UNL1        0.0952
     34 C         139.7045  144.8140  163.2443 C.3     1  UNL1        0.0430
     35 C         140.3811  143.4986  163.4933 C.3     1  UNL1        0.0952
@<TRIPOS>BOND
     1    17    18    1
     2    18    16    1
     3    16    10    1
     4    10    11   ar
     5    11    12   ar
     6    12    13   ar
     7    13     4    1
     8     4     5    1
     9     5     6    1
    10     6     7    1
    11     1     7    1
    12     1     2    1
    13     2     3    1
    14     3    19    1
    15    19    20    1
    16    20    21    1
    17    21    22    1
    18    22    23   ar
    19    23    24   ar
    20    24    25   ar
    21    25    29    1
    22    29    30    1
    23    30    31    2
    24    30    32   am
    25    32    33    1
    26    33    34    1
    27    34    35    1
    28    25    26   ar
    29    26    27    1
    30    26    28   ar
    31     7     8    1
    32     8     9    1
    33    13    14   ar
    34    14    15   ar
    35    15    10   ar
    36     9     4    1
    37     3     1    1
    38    28    22   ar
    39    35    32    1
@<TRIPOS>MOLECULE
*****
 35 39 0 0 0
SMALL
GASTEIGER

@<TRIPOS>ATOM
      1 C         138.6606  139.8466  165.7949 C.3     1  UNL1        0.0002
      2 C         138.0610  138.6067  166.3892 C.3     1  UNL1        0.0001
      3 C         138.7970  139.5776  167.2642 C.3     1  UNL1        0.0037
      4 N         139.4627  142.4603  162.2206 N.pl3   1  UNL1       -0.2782
      5 C         140.5921  142.0502  163.1185 C.3     1  UNL1        0.0936
      6 C         140.3248  141.1790  164.3099 C.3     1  UNL1        0.0216
      7 C         138.9280  140.7178  164.6035 C.3     1  UNL1        0.0034
      8 C         137.7985  141.1279  163.7056 C.3     1  UNL1        0.0216
      9 C         138.0659  141.9991  162.5142 C.3     1  UNL1        0.0936
     10 C         140.2648  145.0739  158.6464 C.ar    1  UNL1        0.0457
     11 C         139.6366  143.7243  158.4627 C.ar    1  UNL1        0.1015
     12 N         139.3693  142.8530  159.6542 N.ar    1  UNL1       -0.2123
     13 C         139.7301  143.3315  161.0292 C.ar    1  UNL1        0.2202
     14 N         140.3583  144.6811  161.2129 N.ar    1  UNL1       -0.2123
     15 C         140.6257  145.5523  160.0214 C.ar    1  UNL1        0.1015
     16 C         140.5322  145.9451  157.4549 C.3     1  UNL1        0.1718
     17 C         139.1567  147.0192  155.5303 C.3     1  UNL1        0.1746
     18 O         139.4909  146.9191  156.9892 O.3     1  UNL1       -0.3462
     19 C         139.3007  139.9827  168.6178 C.3     1  UNL1        0.0473
     20 C         140.1834  141.1872  168.7600 C.3     1  UNL1        0.2054
     21 O         141.6747  141.0263  168.7773 O.3     1  UNL1       -0.4754
     22 C         142.4310  140.9045  167.4877 C.ar    1  UNL1        0.1408
     23 C         142.6658  139.5530  166.8807 C.ar    1  UNL1        0.0367
     24 C         143.4221  139.4312  165.5911 C.ar    1  UNL1        0.0016
     25 C         143.9436  140.6609  164.9084 C.ar    1  UNL1        0.0146
     26 C         143.7087  142.0123  165.5154 C.ar    1  UNL1        0.1396
     27 F         144.2303  143.2420  164.8327 F       1  UNL1       -0.2044
     28 C         142.9525  142.1341  166.8050 C.ar    1  UNL1        0.0662
     29 C         144.6999  140.5391  163.6188 C.3     1  UNL1        0.1138
     30 C         143.9635  140.2702  162.3399 C.2     1  UNL1        0.2301
     31 O         143.4877  138.8826  162.0260 O.2     1  UNL1       -0.2745
     32 N         143.7027  141.3887  161.3752 N.am    1  UNL1       -0.2791
     33 C         143.0235  141.5034  160.0427 C.3     1  UNL1        0.0952
     34 C         143.3341  142.9706  160.0108 C.3     1  UNL1        0.0430
     35 C         144.0133  142.8559  161.3433 C.3     1  UNL1        0.0952
@<TRIPOS>BOND
     1    17    18    1
     2    18    16    1
     3    16    10    1
     4    10    11   ar
     5    11    12   ar
     6    12    13   ar
     7    13     4    1
     8     4     5    1
     9     5     6    1
    10     6     7    1
    11     1     7    1
    12     1     2    1
    13     2     3    1
    14     3    19    1
    15    19    20    1
    16    20    21    1
    17    21    22    1
    18    22    23   ar
    19    23    24   ar
    20    24    25   ar
    21    25    29    1
    22    29    30    1
    23    30    31    2
    24    30    32   am
    25    32    33    1
    26    33    34    1
    27    34    35    1
    28    25    26   ar
    29    26    27    1
    30    26    28   ar
    31     7     8    1
    32     8     9    1
    33    13    14   ar
    34    14    15   ar
    35    15    10   ar
    36     9     4    1
    37     3     1    1
    38    28    22   ar
    39    35    32    1
@<TRIPOS>MOLECULE
*****
 35 39 0 0 0
SMALL
GASTEIGER

@<TRIPOS>ATOM
      1 C         138.5976  139.8319  165.9215 C.3     1  UNL1        0.0002
      2 C         138.0181  138.5797  166.5097 C.3     1  UNL1        0.0001
      3 C         138.6912  139.5838  167.3978 C.3     1  UNL1        0.0037
      4 N         139.4393  142.4305  162.3454 N.pl3   1  UNL1       -0.2782
      5 C         139.6279  142.9760  163.7299 C.3     1  UNL1        0.0936
      6 C         139.3474  142.1097  164.9219 C.3     1  UNL1        0.0216
      7 C         138.8782  140.6981  164.7294 C.3     1  UNL1        0.0034
      8 C         138.6895  140.1527  163.3449 C.3     1  UNL1        0.0216
      9 C         138.9700  141.0189  162.1529 C.3     1  UNL1        0.0936
     10 C         140.2809  145.0292  158.7692 C.ar    1  UNL1        0.0457
     11 C         140.7129  145.4713  160.1359 C.ar    1  UNL1        0.1015
     12 N         140.4323  144.6051  161.3280 N.ar    1  UNL1       -0.2123
     13 C         139.7198  143.2968  161.1533 C.ar    1  UNL1        0.2202
     14 N         139.2878  142.8547  159.7866 N.ar    1  UNL1       -0.2123
     15 C         139.5683  143.7209  158.5946 C.ar    1  UNL1        0.1015
     16 C         140.5614  145.8954  157.5772 C.3     1  UNL1        0.1718
     17 C         139.1866  146.9827  155.6595 C.3     1  UNL1        0.1746
     18 O         139.5377  146.8895  157.1148 O.3     1  UNL1       -0.3462
     19 C         139.1339  140.0202  168.7629 C.3     1  UNL1        0.0473
     20 C         140.5548  140.4435  168.9910 C.3     1  UNL1        0.2054
     21 O         141.1490  141.5492  168.1698 O.3     1  UNL1       -0.4754
     22 C         142.1196  141.2296  167.0717 C.ar    1  UNL1        0.1408
     23 C         142.8341  142.3375  166.3562 C.ar    1  UNL1        0.0367
     24 C         143.8046  142.0179  165.2581 C.ar    1  UNL1        0.0016
     25 C         144.0606  140.5904  164.8755 C.ar    1  UNL1        0.0146
     26 C         143.3461  139.4824  165.5909 C.ar    1  UNL1        0.1396
     27 F         143.6021  138.0548  165.2081 F       1  UNL1       -0.2044
     28 C         142.3755  139.8020  166.6890 C.ar    1  UNL1        0.0662
     29 C         145.0312  140.2707  163.7773 C.3     1  UNL1        0.1138
     30 C         144.6528  140.5167  162.3468 C.2     1  UNL1        0.2301
     31 O         144.9272  141.8502  161.7171 O.2     1  UNL1       -0.2745
     32 N         144.0000  139.4293  161.5460 N.am    1  UNL1       -0.2791
     33 C         143.4960  139.3051  160.1387 C.3     1  UNL1        0.0952
     34 C         143.0769  137.8913  160.4136 C.3     1  UNL1        0.0430
     35 C         143.5809  138.0154  161.8209 C.3     1  UNL1        0.0952
@<TRIPOS>BOND
     1    17    18    1
     2    18    16    1
     3    16    10    1
     4    10    11   ar
     5    11    12   ar
     6    12    13   ar
     7    13     4    1
     8     4     5    1
     9     5     6    1
    10     6     7    1
    11     1     7    1
    12     1     2    1
    13     2     3    1
    14     3    19    1
    15    19    20    1
    16    20    21    1
    17    21    22    1
    18    22    23   ar
    19    23    24   ar
    20    24    25   ar
    21    25    29    1
    22    29    30    1
    23    30    31    2
    24    30    32   am
    25    32    33    1
    26    33    34    1
    27    34    35    1
    28    25    26   ar
    29    26    27    1
    30    26    28   ar
    31     7     8    1
    32     8     9    1
    33    13    14   ar
    34    14    15   ar
    35    15    10   ar
    36     9     4    1
    37     3     1    1
    38    28    22   ar
    39    35    32    1
@<TRIPOS>MOLECULE
*****
 35 39 0 0 0
SMALL
GASTEIGER

@<TRIPOS>ATOM
      1 C         142.7610  142.9198  160.2007 C.3     1  UNL1        0.0002
      2 C         143.2297  142.6868  158.7950 C.3     1  UNL1        0.0001
      3 C         142.2846  143.8127  159.0936 C.3     1  UNL1        0.0037
      4 N         142.7742  141.7765  164.5530 N.pl3   1  UNL1       -0.2782
      5 C         142.0267  140.9375  163.5595 C.3     1  UNL1        0.0936
      6 C         142.0223  141.3186  162.1087 C.3     1  UNL1        0.0216
      7 C         142.7654  142.5387  161.6515 C.3     1  UNL1        0.0034
      8 C         143.5129  143.3777  162.6450 C.3     1  UNL1        0.0216
      9 C         143.5173  142.9966  164.0958 C.3     1  UNL1        0.0936
     10 C         142.7875  140.6333  168.9054 C.ar    1  UNL1        0.0457
     11 C         142.9683  142.0678  168.5062 C.ar    1  UNL1        0.1015
     12 N         142.9639  142.4489  167.0554 N.ar    1  UNL1       -0.2123
     13 C         142.7786  141.3954  166.0038 C.ar    1  UNL1        0.2202
     14 N         142.5978  139.9609  166.4030 N.ar    1  UNL1       -0.2123
     15 C         142.6022  139.5798  167.8538 C.ar    1  UNL1        0.1015
     16 C         142.7919  140.2522  170.3561 C.3     1  UNL1        0.1718
     17 C         140.2380  140.2755  170.8325 C.3     1  UNL1        0.1746
     18 O         141.6378  140.6334  171.2352 O.3     1  UNL1       -0.3462
     19 C         141.4640  144.9783  158.6269 C.3     1  UNL1        0.0473
     20 C         140.3829  145.5343  159.5056 C.3     1  UNL1        0.2054
     21 O         140.6030  145.6476  160.9850 O.3     1  UNL1       -0.4754
     22 C         139.9438  144.6755  161.9181 C.ar    1  UNL1        0.1408
     23 C         139.0151  143.6290  161.3773 C.ar    1  UNL1        0.0367
     24 C         138.3558  142.6569  162.3103 C.ar    1  UNL1        0.0016
     25 C         138.6254  142.7313  163.7839 C.ar    1  UNL1        0.0146
     26 C         139.5541  143.7777  164.3247 C.ar    1  UNL1        0.1396
     27 F         139.8236  143.8520  165.7984 F       1  UNL1       -0.2044
     28 C         140.2133  144.7498  163.3917 C.ar    1  UNL1        0.0662
     29 C         137.9661  141.7592  164.7170 C.3     1  UNL1        0.1138
     30 C         138.7359  140.5834  165.2415 C.2     1  UNL1        0.2301
     31 O         139.3309  140.6301  166.6177 O.2     1  UNL1       -0.2745
     32 N         138.9105  139.3610  164.3900 N.am    1  UNL1       -0.2791
     33 C         139.5912  138.0357  164.5639 C.3     1  UNL1        0.0952
     34 C         139.1575  137.6323  163.1857 C.3     1  UNL1        0.0430
     35 C         138.4768  138.9576  163.0119 C.3     1  UNL1        0.0952
@<TRIPOS>BOND
     1    17    18    1
     2    18    16    1
     3    16    10    1
     4    10    11   ar
     5    11    12   ar
     6    12    13   ar
     7    13     4    1
     8     4     5    1
     9     5     6    1
    10     6     7    1
    11     1     7    1
    12     1     2    1
    13     2     3    1
    14     3    19    1
    15    19    20    1
    16    20    21    1
    17    21    22    1
    18    22    23   ar
    19    23    24   ar
    20    24    25   ar
    21    25    29    1
    22    29    30    1
    23    30    31    2
    24    30    32   am
    25    32    33    1
    26    33    34    1
    27    34    35    1
    28    25    26   ar
    29    26    27    1
    30    26    28   ar
    31     7     8    1
    32     8     9    1
    33    13    14   ar
    34    14    15   ar
    35    15    10   ar
    36     9     4    1
    37     3     1    1
    38    28    22   ar
    39    35    32    1
@<TRIPOS>MOLECULE
*****
 35 39 0 0 0
SMALL
GASTEIGER

@<TRIPOS>ATOM
      1 C         143.2889  141.4706  168.5195 C.3     1  UNL1        0.0002
      2 C         143.8303  142.4801  169.4879 C.3     1  UNL1        0.0001
      3 C         142.9405  141.3752  169.9753 C.3     1  UNL1        0.0037
      4 N         142.9549  139.8875  164.3204 N.pl3   1  UNL1       -0.2782
      5 C         142.7613  138.9652  165.4873 C.3     1  UNL1        0.0936
      6 C         142.8726  139.4929  166.8870 C.3     1  UNL1        0.0216
      7 C         143.1776  140.9429  167.1198 C.3     1  UNL1        0.0034
      8 C         143.3712  141.8653  165.9529 C.3     1  UNL1        0.0216
      9 C         143.2598  141.3376  164.5532 C.3     1  UNL1        0.0936
     10 C         142.6208  138.3044  160.1214 C.ar    1  UNL1        0.0457
     11 C         143.9042  138.1483  160.8819 C.ar    1  UNL1        0.1015
     12 N         144.0156  138.6760  162.2815 N.ar    1  UNL1       -0.2123
     13 C         142.8435  139.3598  162.9207 C.ar    1  UNL1        0.2202
     14 N         141.5601  139.5159  162.1602 N.ar    1  UNL1       -0.2123
     15 C         141.4487  138.9882  160.7605 C.ar    1  UNL1        0.1015
     16 C         142.5094  137.7767  158.7217 C.3     1  UNL1        0.1718
     17 C         143.3156  137.7768  156.2519 C.3     1  UNL1        0.1746
     18 O         143.3329  138.3825  157.6240 O.3     1  UNL1       -0.3462
     19 C         142.2256  140.6822  171.0972 C.3     1  UNL1        0.0473
     20 C         140.7295  140.5746  171.0801 C.3     1  UNL1        0.2054
     21 O         139.9116  141.6045  170.3590 O.3     1  UNL1       -0.4754
     22 C         139.8287  141.5824  168.8614 C.ar    1  UNL1        0.1408
     23 C         140.0787  142.8367  168.0777 C.ar    1  UNL1        0.0367
     24 C         139.9958  142.8146  166.5802 C.ar    1  UNL1        0.0016
     25 C         139.6628  141.5381  165.8663 C.ar    1  UNL1        0.0146
     26 C         139.4127  140.2838  166.6500 C.ar    1  UNL1        0.1396
     27 F         139.0797  139.0072  165.9360 F       1  UNL1       -0.2044
     28 C         139.4956  140.3059  168.1475 C.ar    1  UNL1        0.0662
     29 C         139.5798  141.5159  164.3687 C.3     1  UNL1        0.1138
     30 C         138.8755  142.6219  163.6402 C.2     1  UNL1        0.2301
     31 O         137.4068  142.5155  163.3543 O.2     1  UNL1       -0.2745
     32 N         139.6399  143.8342  163.1975 N.am    1  UNL1       -0.2791
     33 C         139.2932  145.0995  162.4703 C.3     1  UNL1        0.0952
     34 C         140.7209  145.5487  162.5714 C.3     1  UNL1        0.0430
     35 C         141.0675  144.2833  163.2986 C.3     1  UNL1        0.0952
@<TRIPOS>BOND
     1    17    18    1
     2    18    16    1
     3    16    10    1
     4    10    11   ar
     5    11    12   ar
     6    12    13   ar
     7    13     4    1
     8     4     5    1
     9     5     6    1
    10     6     7    1
    11     1     7    1
    12     1     2    1
    13     2     3    1
    14     3    19    1
    15    19    20    1
    16    20    21    1
    17    21    22    1
    18    22    23   ar
    19    23    24   ar
    20    24    25   ar
    21    25    29    1
    22    29    30    1
    23    30    31    2
    24    30    32   am
    25    32    33    1
    26    33    34    1
    27    34    35    1
    28    25    26   ar
    29    26    27    1
    30    26    28   ar
    31     7     8    1
    32     8     9    1
    33    13    14   ar
    34    14    15   ar
    35    15    10   ar
    36     9     4    1
    37     3     1    1
    38    28    22   ar
    39    35    32    1
@<TRIPOS>MOLECULE
*****
 35 39 0 0 0
SMALL
GASTEIGER

@<TRIPOS>ATOM
      1 C         140.1778  141.8315  165.9584 C.3     1  UNL1        0.0002
      2 C         140.5186  141.9434  167.4148 C.3     1  UNL1        0.0001
      3 C         139.6928  140.7914  166.9242 C.3     1  UNL1        0.0037
      4 N         140.4277  143.4393  161.7628 N.pl3   1  UNL1       -0.2782
      5 C         141.2938  142.2868  162.1772 C.3     1  UNL1        0.0936
      6 C         141.2105  141.7509  163.5757 C.3     1  UNL1        0.0216
      7 C         140.2611  142.3674  164.5599 C.3     1  UNL1        0.0034
      8 C         139.3951  143.5199  164.1455 C.3     1  UNL1        0.0216
      9 C         139.4784  144.0558  162.7470 C.3     1  UNL1        0.0936
     10 C         140.6776  145.0470  157.5673 C.ar    1  UNL1        0.0457
     11 C         139.5643  144.1172  157.9491 C.ar    1  UNL1        0.1015
     12 N         139.4810  143.5813  159.3476 N.ar    1  UNL1       -0.2123
     13 C         140.5110  143.9752  160.3643 C.ar    1  UNL1        0.2202
     14 N         141.6244  144.9050  159.9825 N.ar    1  UNL1       -0.2123
     15 C         141.7077  145.4410  158.5840 C.ar    1  UNL1        0.1015
     16 C         140.7609  145.5830  156.1688 C.3     1  UNL1        0.1718
     17 C         139.0121  147.5042  156.1901 C.3     1  UNL1        0.1746
     18 O         139.5750  146.2669  155.5558 O.3     1  UNL1       -0.3462
     19 C         138.9360  139.5257  167.1985 C.3     1  UNL1        0.0473
     20 C         138.1042  138.9000  166.1183 C.3     1  UNL1        0.2054
     21 O         138.6283  137.7183  165.3577 O.3     1  UNL1       -0.4754
     22 C         139.8563  137.8581  164.5076 C.ar    1  UNL1        0.1408
     23 C         139.7398  137.8361  163.0122 C.ar    1  UNL1        0.0367
     24 C         140.9677  137.9759  162.1622 C.ar    1  UNL1        0.0016
     25 C         142.3121  138.1377  162.8074 C.ar    1  UNL1        0.0146
     26 C         142.4286  138.1597  164.3027 C.ar    1  UNL1        0.1396
     27 F         143.7731  138.3215  164.9479 F       1  UNL1       -0.2044
     28 C         141.2007  138.0199  165.1528 C.ar    1  UNL1        0.0662
     29 C         143.5401  138.2775  161.9573 C.3     1  UNL1        0.1138
     30 C         143.8973  139.6104  161.3691 C.2     1  UNL1        0.2301
     31 O         143.5484  139.9187  159.9432 O.2     1  UNL1       -0.2745
     32 N         144.6034  140.6348  162.2068 N.am    1  UNL1       -0.2791
     33 C         145.1061  142.0293  161.9769 C.3     1  UNL1        0.0952
     34 C         145.6020  142.0836  163.3916 C.3     1  UNL1        0.0430
     35 C         145.0993  140.6892  163.6215 C.3     1  UNL1        0.0952
@<TRIPOS>BOND
     1    17    18    1
     2    18    16    1
     3    16    10    1
     4    10    11   ar
     5    11    12   ar
     6    12    13   ar
     7    13     4    1
     8     4     5    1
     9     5     6    1
    10     6     7    1
    11     1     7    1
    12     1     2    1
    13     2     3    1
    14     3    19    1
    15    19    20    1
    16    20    21    1
    17    21    22    1
    18    22    23   ar
    19    23    24   ar
    20    24    25   ar
    21    25    29    1
    22    29    30    1
    23    30    31    2
    24    30    32   am
    25    32    33    1
    26    33    34    1
    27    34    35    1
    28    25    26   ar
    29    26    27    1
    30    26    28   ar
    31     7     8    1
    32     8     9    1
    33    13    14   ar
    34    14    15   ar
    35    15    10   ar
    36     9     4    1
    37     3     1    1
    38    28    22   ar
    39    35    32    1
@<TRIPOS>MOLECULE
*****
 35 39 0 0 0
SMALL
GASTEIGER

@<TRIPOS>ATOM
      1 C         138.4483  138.7780  166.2888 C.3     1  UNL1        0.0002
      2 C         137.4311  138.4073  167.3270 C.3     1  UNL1        0.0001
      3 C         138.5734  139.3111  167.6852 C.3     1  UNL1        0.0037
      4 N         139.9932  138.4969  162.0717 N.pl3   1  UNL1       -0.2782
      5 C         138.8984  139.4661  162.4063 C.3     1  UNL1        0.0936
      6 C         138.3834  139.5598  163.8120 C.3     1  UNL1        0.0216
      7 C         138.9632  138.6843  164.8831 C.3     1  UNL1        0.0034
      8 C         140.0580  137.7151  164.5485 C.3     1  UNL1        0.0216
      9 C         140.5730  137.6214  163.1428 C.3     1  UNL1        0.0936
     10 C         141.5382  138.2157  157.8546 C.ar    1  UNL1        0.0457
     11 C         140.0822  138.4761  158.1041 C.ar    1  UNL1        0.1015
     12 N         139.5672  138.5699  159.5098 N.ar    1  UNL1       -0.2123
     13 C         140.5082  138.4031  160.6660 C.ar    1  UNL1        0.2202
     14 N         141.9642  138.1427  160.4164 N.ar    1  UNL1       -0.2123
     15 C         142.4791  138.0490  159.0107 C.ar    1  UNL1        0.1015
     16 C         142.0532  138.1220  156.4489 C.3     1  UNL1        0.1718
     17 C         141.3353  139.9612  154.7601 C.3     1  UNL1        0.1746
     18 O         141.1941  138.5704  155.3039 O.3     1  UNL1       -0.3462
     19 C         139.3051  140.1407  168.6983 C.3     1  UNL1        0.0473
     20 C         140.5110  140.9334  168.2888 C.3     1  UNL1        0.2054
     21 O         141.1459  140.6955  166.9508 O.3     1  UNL1       -0.4754
     22 C         140.9325  141.6748  165.8346 C.ar    1  UNL1        0.1408
     23 C         141.5115  141.4032  164.4778 C.ar    1  UNL1        0.0367
     24 C         141.2982  142.3823  163.3617 C.ar    1  UNL1        0.0016
     25 C         140.5059  143.6330  163.6024 C.ar    1  UNL1        0.0146
     26 C         139.9269  143.9046  164.9592 C.ar    1  UNL1        0.1396
     27 F         139.1346  145.1553  165.1999 F       1  UNL1       -0.2044
     28 C         140.1402  142.9254  166.0753 C.ar    1  UNL1        0.0662
     29 C         140.2926  144.6122  162.4862 C.3     1  UNL1        0.1138
     30 C         140.6842  144.2488  161.0846 C.2     1  UNL1        0.2301
     31 O         141.9553  144.7873  160.4976 O.2     1  UNL1       -0.2745
     32 N         139.8049  143.3471  160.2701 N.am    1  UNL1       -0.2791
     33 C         139.8619  142.7808  158.8822 C.3     1  UNL1        0.0952
     34 C         138.5613  142.0718  159.1182 C.3     1  UNL1        0.0430
     35 C         138.5043  142.6380  160.5061 C.3     1  UNL1        0.0952
@<TRIPOS>BOND
     1    17    18    1
     2    18    16    1
     3    16    10    1
     4    10    11   ar
     5    11    12   ar
     6    12    13   ar
     7    13     4    1
     8     4     5    1
     9     5     6    1
    10     6     7    1
    11     1     7    1
    12     1     2    1
    13     2     3    1
    14     3    19    1
    15    19    20    1
    16    20    21    1
    17    21    22    1
    18    22    23   ar
    19    23    24   ar
    20    24    25   ar
    21    25    29    1
    22    29    30    1
    23    30    31    2
    24    30    32   am
    25    32    33    1
    26    33    34    1
    27    34    35    1
    28    25    26   ar
    29    26    27    1
    30    26    28   ar
    31     7     8    1
    32     8     9    1
    33    13    14   ar
    34    14    15   ar
    35    15    10   ar
    36     9     4    1
    37     3     1    1
    38    28    22   ar
    39    35    32    1
