@<TRIPOS>MOLECULE
*****
 36 41 0 0 0
SMALL
GASTEIGER

@<TRIPOS>ATOM
      1 C         144.4568  139.7377  163.4934 C.3     1  UNL1        0.0700
      2 C         144.1266  139.4040  164.9181 C.3     1  UNL1        0.0193
      3 C         142.9707  138.4998  165.2281 C.3     1  UNL1        0.0286
      4 C         142.1449  137.9291  164.1134 C.3     1  UNL1        0.0932
      5 C         142.4751  138.2627  162.6887 C.3     1  UNL1        0.0286
      6 C         143.6311  139.1670  162.3788 C.3     1  UNL1        0.0193
      7 O         142.7686  138.4199  163.8943 O.3     1  UNL1       -0.3572
      8 C         143.8138  139.2376  163.6139 C.3     1  UNL1        0.1562
      9 N         145.6127  140.6419  163.1835 N.3     1  UNL1       -0.2926
     10 H         146.4288  140.2476  163.6515 H       1  UNL1        0.1236
     11 C         145.5538  142.0917  163.5638 C.3     1  UNL1        0.1152
     12 O         140.6723  145.6228  158.6189 O.2     1  UNL1       -0.2707
     13 C         141.0491  145.2363  160.0184 C.2     1  UNL1        0.2718
     14 C         140.1758  145.6402  161.1691 C.3     1  UNL1        0.2898
     15 O         140.5527  145.2536  162.5685 O.3     1  UNL1       -0.4628
     16 C         141.8029  144.4632  162.8174 C.ar    1  UNL1        0.1708
     17 C         142.1798  144.0766  164.2168 C.ar    1  UNL1        0.0411
     18 C         143.4301  143.2861  164.4657 C.ar    1  UNL1        0.0193
     19 C         144.3035  142.8822  163.3150 C.ar    1  UNL1        0.0765
     20 N         143.9266  143.2688  161.9155 N.ar    1  UNL1       -0.2304
     21 C         142.6763  144.0593  161.6667 C.ar    1  UNL1        0.1682
     22 N         142.2994  144.4458  160.2672 N.am    1  UNL1       -0.2639
     23 H         142.8727  144.1807  159.5120 H       1  UNL1        0.1565
     24 C         140.9890  137.0248  164.4234 C.3     1  UNL1        0.0319
     25 C         139.6481  137.6089  164.7561 C.3     1  UNL1        0.0304
     26 C         138.9729  138.5358  163.7892 C.ar    1  UNL1       -0.0014
     27 C         138.4080  138.0003  162.5068 C.ar    1  UNL1        0.0179
     28 C         137.7329  138.9272  161.5399 C.ar    1  UNL1        0.0986
     29 N         137.6226  140.3896  161.8552 N.ar    1  UNL1       -0.2423
     30 C         138.1874  140.9250  163.1375 C.ar    1  UNL1        0.0995
     31 C         138.0771  142.3873  163.4528 C.ar    1  UNL1        0.0336
     32 C         138.6420  142.9227  164.7351 C.ar    1  UNL1        0.0783
     33 CL        138.5316  144.3851  165.0505 Cl      1  UNL1       -0.0806
     34 C         139.3171  141.9959  165.7021 C.ar    1  UNL1        0.1102
     35 N         139.4274  140.5335  165.3867 N.ar    1  UNL1       -0.2418
     36 C         138.8626  139.9981  164.1045 C.ar    1  UNL1        0.0950
@<TRIPOS>BOND
     1    12    13    2
     2    13    14    1
     3    14    15    1
     4    15    16    1
     5    16    17   ar
     6    17    18   ar
     7    18    19   ar
     8    19    11    1
     9    11     9    1
    10     9     1    1
    11     1     2    1
    12     2     3    1
    13     3     4    1
    14     4    24    1
    15    24    25    1
    16    25    26    1
    17    26    27   ar
    18    27    28   ar
    19    28    29   ar
    20    29    30   ar
    21    30    31   ar
    22    31    32   ar
    23    32    33    1
    24    32    34   ar
    25    34    35   ar
    26    35    36   ar
    27     4     5    1
    28     5     6    1
    29     4     7    1
    30     7     8    1
    31    19    20   ar
    32    20    21   ar
    33    21    22    1
    34    22    13   am
    35    21    16   ar
    36     6     1    1
    37     8     1    1
    38    36    26   ar
    39    36    30   ar
    40     9    10    1
    41    22    23    1
@<TRIPOS>MOLECULE
*****
 36 41 0 0 0
SMALL
GASTEIGER

@<TRIPOS>ATOM
      1 C         137.8765  140.1305  162.4104 C.3     1  UNL1        0.0700
      2 C         137.8143  141.4233  161.6522 C.3     1  UNL1        0.0193
      3 C         137.7792  142.7267  162.3938 C.3     1  UNL1        0.0286
      4 C         137.8064  142.7373  163.8935 C.3     1  UNL1        0.0932
      5 C         137.8686  141.4445  164.6517 C.3     1  UNL1        0.0286
      6 C         137.9036  140.1411  163.9100 C.3     1  UNL1        0.0193
      7 O         137.8273  141.9983  163.5311 O.3     1  UNL1       -0.3572
      8 C         137.8590  140.8197  162.8606 C.3     1  UNL1        0.1562
      9 N         137.9116  138.8272  161.6688 N.3     1  UNL1       -0.2926
     10 H         137.4708  138.1330  162.2724 H       1  UNL1        0.1236
     11 C         139.2243  138.2487  161.2305 C.3     1  UNL1        0.1152
     12 O         146.0685  141.6027  162.8610 O.2     1  UNL1       -0.2707
     13 C         144.9943  140.6117  163.1987 C.2     1  UNL1        0.2718
     14 C         145.1273  139.7477  164.4176 C.3     1  UNL1        0.2898
     15 O         144.0531  138.7567  164.7554 O.3     1  UNL1       -0.4628
     16 C         142.8459  138.6297  163.8742 C.ar    1  UNL1        0.1708
     17 C         141.7717  137.6387  164.2119 C.ar    1  UNL1        0.0411
     18 C         140.5645  137.5117  163.3307 C.ar    1  UNL1        0.0193
     19 C         140.4315  138.3757  162.1117 C.ar    1  UNL1        0.0765
     20 N         141.5057  139.3667  161.7740 N.ar    1  UNL1       -0.2304
     21 C         142.7129  139.4937  162.6552 C.ar    1  UNL1        0.1682
     22 N         143.7871  140.4847  162.3175 N.am    1  UNL1       -0.2639
     23 H         143.6998  141.0517  161.5175 H       1  UNL1        0.1565
     24 C         137.7713  144.0407  164.6351 C.3     1  UNL1        0.0319
     25 C         139.0289  144.8402  164.8064 C.3     1  UNL1        0.0304
     26 C         140.3630  144.2029  164.5540 C.ar    1  UNL1       -0.0014
     27 C         141.0922  144.4722  163.2710 C.ar    1  UNL1        0.0179
     28 C         142.4264  143.8349  163.0186 C.ar    1  UNL1        0.0986
     29 N         143.0314  142.9282  164.0490 N.ar    1  UNL1       -0.2423
     30 C         142.3024  142.6588  165.3318 C.ar    1  UNL1        0.0995
     31 C         142.9074  141.7521  166.3623 C.ar    1  UNL1        0.0336
     32 C         142.1783  141.4827  167.6452 C.ar    1  UNL1        0.0783
     33 CL        142.7834  140.5760  168.6756 Cl      1  UNL1       -0.0806
     34 C         140.8441  142.1200  167.8977 C.ar    1  UNL1        0.1102
     35 N         140.2390  143.0268  166.8672 N.ar    1  UNL1       -0.2418
     36 C         140.9681  143.2962  165.5844 C.ar    1  UNL1        0.0950
@<TRIPOS>BOND
     1    12    13    2
     2    13    14    1
     3    14    15    1
     4    15    16    1
     5    16    17   ar
     6    17    18   ar
     7    18    19   ar
     8    19    11    1
     9    11     9    1
    10     9     1    1
    11     1     2    1
    12     2     3    1
    13     3     4    1
    14     4    24    1
    15    24    25    1
    16    25    26    1
    17    26    27   ar
    18    27    28   ar
    19    28    29   ar
    20    29    30   ar
    21    30    31   ar
    22    31    32   ar
    23    32    33    1
    24    32    34   ar
    25    34    35   ar
    26    35    36   ar
    27     4     5    1
    28     5     6    1
    29     4     7    1
    30     7     8    1
    31    19    20   ar
    32    20    21   ar
    33    21    22    1
    34    22    13   am
    35    21    16   ar
    36     6     1    1
    37     8     1    1
    38    36    26   ar
    39    36    30   ar
    40     9    10    1
    41    22    23    1
@<TRIPOS>MOLECULE
*****
 36 41 0 0 0
SMALL
GASTEIGER

@<TRIPOS>ATOM
      1 C         141.1350  137.6845  162.8726 C.3     1  UNL1        0.0700
      2 C         141.5209  137.7647  164.3199 C.3     1  UNL1        0.0193
      3 C         142.8295  138.3829  164.7141 C.3     1  UNL1        0.0286
      4 C         143.7522  138.9209  163.6610 C.3     1  UNL1        0.0932
      5 C         143.3664  138.8408  162.2137 C.3     1  UNL1        0.0286
      6 C         142.0577  138.2225  161.8195 C.3     1  UNL1        0.0193
      7 O         143.0457  138.5911  163.3965 O.3     1  UNL1       -0.3572
      8 C         141.8624  138.0321  163.0400 C.3     1  UNL1        0.1562
      9 N         139.8264  137.0663  162.4784 N.3     1  UNL1       -0.2926
     10 H         139.8377  136.9757  161.4625 H       1  UNL1        0.1236
     11 C         138.5378  137.7445  162.8384 C.3     1  UNL1        0.1152
     12 O         138.2014  145.0251  165.6007 O.2     1  UNL1       -0.2707
     13 C         138.1497  144.0706  164.4447 C.2     1  UNL1        0.2718
     14 C         137.9343  144.5884  163.0536 C.3     1  UNL1        0.2898
     15 O         137.8826  143.6339  161.8976 O.3     1  UNL1       -0.4628
     16 C         138.0464  142.1616  162.1328 C.ar    1  UNL1        0.1708
     17 C         137.9948  141.2071  160.9768 C.ar    1  UNL1        0.0411
     18 C         138.1586  139.7348  161.2120 C.ar    1  UNL1        0.0193
     19 C         138.3740  139.2169  162.6032 C.ar    1  UNL1        0.0765
     20 N         138.4257  140.1714  163.7592 N.ar    1  UNL1       -0.2304
     21 C         138.2619  141.6438  163.5240 C.ar    1  UNL1        0.1682
     22 N         138.3135  142.5983  164.6799 N.am    1  UNL1       -0.2639
     23 H         138.4549  142.2584  165.5930 H       1  UNL1        0.1565
     24 C         145.0608  139.5391  164.0551 C.3     1  UNL1        0.0319
     25 C         145.1653  141.0250  164.2317 C.3     1  UNL1        0.0304
     26 C         143.9300  141.8401  164.4755 C.ar    1  UNL1       -0.0014
     27 C         143.3280  141.8974  165.8483 C.ar    1  UNL1        0.0179
     28 C         142.0927  142.7125  166.0921 C.ar    1  UNL1        0.0986
     29 N         141.4592  143.4703  164.9632 N.ar    1  UNL1       -0.2423
     30 C         142.0611  143.4130  163.5904 C.ar    1  UNL1        0.0995
     31 C         141.4276  144.1708  162.4615 C.ar    1  UNL1        0.0336
     32 C         142.0296  144.1135  161.0888 C.ar    1  UNL1        0.0783
     33 CL        141.3961  144.8713  159.9598 Cl      1  UNL1       -0.0806
     34 C         143.2649  143.2984  160.8450 C.ar    1  UNL1        0.1102
     35 N         143.8984  142.5406  161.9739 N.ar    1  UNL1       -0.2418
     36 C         143.2965  142.5979  163.3466 C.ar    1  UNL1        0.0950
@<TRIPOS>BOND
     1    12    13    2
     2    13    14    1
     3    14    15    1
     4    15    16    1
     5    16    17   ar
     6    17    18   ar
     7    18    19   ar
     8    19    11    1
     9    11     9    1
    10     9     1    1
    11     1     2    1
    12     2     3    1
    13     3     4    1
    14     4    24    1
    15    24    25    1
    16    25    26    1
    17    26    27   ar
    18    27    28   ar
    19    28    29   ar
    20    29    30   ar
    21    30    31   ar
    22    31    32   ar
    23    32    33    1
    24    32    34   ar
    25    34    35   ar
    26    35    36   ar
    27     4     5    1
    28     5     6    1
    29     4     7    1
    30     7     8    1
    31    19    20   ar
    32    20    21   ar
    33    21    22    1
    34    22    13   am
    35    21    16   ar
    36     6     1    1
    37     8     1    1
    38    36    26   ar
    39    36    30   ar
    40     9    10    1
    41    22    23    1
@<TRIPOS>MOLECULE
*****
 36 41 0 0 0
SMALL
GASTEIGER

@<TRIPOS>ATOM
      1 C         141.3843  137.6450  162.2577 C.3     1  UNL1        0.0700
      2 C         141.8552  137.4070  163.6618 C.3     1  UNL1        0.0193
      3 C         140.8845  137.4887  164.8024 C.3     1  UNL1        0.0286
      4 C         139.4428  137.8083  164.5389 C.3     1  UNL1        0.0932
      5 C         138.9719  138.0463  163.1348 C.3     1  UNL1        0.0286
      6 C         139.9426  137.9646  161.9941 C.3     1  UNL1        0.0193
      7 O         139.9375  137.7744  163.8816 O.3     1  UNL1       -0.3572
      8 C         140.8152  137.7006  162.8502 C.3     1  UNL1        0.1562
      9 N         142.3550  137.5633  161.1171 N.3     1  UNL1       -0.2926
     10 H         142.7284  136.6142  161.1156 H       1  UNL1        0.1236
     11 C         143.5320  138.4919  161.0659 C.3     1  UNL1        0.1152
     12 O         145.2240  144.1524  166.1498 O.2     1  UNL1       -0.2707
     13 C         144.5147  143.6866  164.9129 C.2     1  UNL1        0.2718
     14 C         143.6600  144.6418  164.1337 C.3     1  UNL1        0.2898
     15 O         142.9507  144.1760  162.8968 O.3     1  UNL1       -0.4628
     16 C         143.0960  142.7550  162.4391 C.ar    1  UNL1        0.1708
     17 C         142.3867  142.2892  161.2022 C.ar    1  UNL1        0.0411
     18 C         142.5320  140.8682  160.7445 C.ar    1  UNL1        0.0193
     19 C         143.3867  139.9129  161.5236 C.ar    1  UNL1        0.0765
     20 N         144.0960  140.3787  162.7605 N.ar    1  UNL1       -0.2304
     21 C         143.9506  141.7998  163.2183 C.ar    1  UNL1        0.1682
     22 N         144.6600  142.2656  164.4551 N.am    1  UNL1       -0.2639
     23 H         145.2209  141.6386  164.9665 H       1  UNL1        0.1565
     24 C         138.4721  137.8900  165.6795 C.3     1  UNL1        0.0319
     25 C         138.1256  139.2221  166.2756 C.3     1  UNL1        0.0304
     26 C         139.1603  140.3060  166.3422 C.ar    1  UNL1       -0.0014
     27 C         140.2766  140.2169  167.3402 C.ar    1  UNL1        0.0179
     28 C         141.3114  141.3008  167.4068 C.ar    1  UNL1        0.0986
     29 N         141.2299  142.4738  166.4754 N.ar    1  UNL1       -0.2423
     30 C         140.1137  142.5629  165.4774 C.ar    1  UNL1        0.0995
     31 C         140.0322  143.7358  164.5460 C.ar    1  UNL1        0.0336
     32 C         138.9159  143.8249  163.5479 C.ar    1  UNL1        0.0783
     33 CL        138.8344  144.9978  162.6165 Cl      1  UNL1       -0.0806
     34 C         137.8812  142.7410  163.4813 C.ar    1  UNL1        0.1102
     35 N         137.9626  141.5680  164.4127 N.ar    1  UNL1       -0.2418
     36 C         139.0789  141.4790  165.4108 C.ar    1  UNL1        0.0950
@<TRIPOS>BOND
     1    12    13    2
     2    13    14    1
     3    14    15    1
     4    15    16    1
     5    16    17   ar
     6    17    18   ar
     7    18    19   ar
     8    19    11    1
     9    11     9    1
    10     9     1    1
    11     1     2    1
    12     2     3    1
    13     3     4    1
    14     4    24    1
    15    24    25    1
    16    25    26    1
    17    26    27   ar
    18    27    28   ar
    19    28    29   ar
    20    29    30   ar
    21    30    31   ar
    22    31    32   ar
    23    32    33    1
    24    32    34   ar
    25    34    35   ar
    26    35    36   ar
    27     4     5    1
    28     5     6    1
    29     4     7    1
    30     7     8    1
    31    19    20   ar
    32    20    21   ar
    33    21    22    1
    34    22    13   am
    35    21    16   ar
    36     6     1    1
    37     8     1    1
    38    36    26   ar
    39    36    30   ar
    40     9    10    1
    41    22    23    1
@<TRIPOS>MOLECULE
*****
 36 41 0 0 0
SMALL
GASTEIGER

@<TRIPOS>ATOM
      1 C         143.7636  143.7344  162.2328 C.3     1  UNL1        0.0700
      2 C         142.6121  143.5066  161.2988 C.3     1  UNL1        0.0193
      3 C         141.2647  144.0854  161.6143 C.3     1  UNL1        0.0286
      4 C         141.0688  144.8921  162.8637 C.3     1  UNL1        0.0932
      5 C         142.2203  145.1199  163.7976 C.3     1  UNL1        0.0286
      6 C         143.5677  144.5410  163.4821 C.3     1  UNL1        0.0193
      7 O         141.8256  144.5950  162.7332 O.3     1  UNL1       -0.3572
      8 C         143.0439  144.0716  162.4480 C.3     1  UNL1        0.1562
      9 N         145.1109  143.1555  161.9173 N.3     1  UNL1       -0.2926
     10 H         145.0906  142.8804  160.9353 H       1  UNL1        0.1236
     11 C         145.6182  141.9728  162.6880 C.3     1  UNL1        0.1152
     12 O         139.2992  137.6192  161.3223 O.2     1  UNL1       -0.2707
     13 C         140.4569  137.9885  162.2016 C.2     1  UNL1        0.2718
     14 C         140.6661  137.2761  163.5049 C.3     1  UNL1        0.2898
     15 O         141.8238  137.6455  164.3842 O.3     1  UNL1       -0.4628
     16 C         142.7724  138.7273  163.9601 C.ar    1  UNL1        0.1708
     17 C         143.9302  139.0967  164.8394 C.ar    1  UNL1        0.0411
     18 C         144.8788  140.1785  164.4154 C.ar    1  UNL1        0.0193
     19 C         144.6696  140.8910  163.1120 C.ar    1  UNL1        0.0765
     20 N         143.5119  140.5216  162.2327 N.ar    1  UNL1       -0.2304
     21 C         142.5633  139.4397  162.6568 C.ar    1  UNL1        0.1682
     22 N         141.4055  139.0703  161.7775 N.am    1  UNL1       -0.2639
     23 H         141.2682  139.5379  160.9221 H       1  UNL1        0.1565
     24 C         139.7215  145.4709  163.1791 C.3     1  UNL1        0.0319
     25 C         138.8466  144.8176  164.2076 C.3     1  UNL1        0.0304
     26 C         138.6250  143.3346  164.1709 C.ar    1  UNL1       -0.0014
     27 C         137.6334  142.7479  163.2103 C.ar    1  UNL1        0.0179
     28 C         137.4117  141.2649  163.1735 C.ar    1  UNL1        0.0986
     29 N         138.1817  140.3684  164.0973 N.ar    1  UNL1       -0.2423
     30 C         139.1733  140.9549  165.0579 C.ar    1  UNL1        0.0995
     31 C         139.9432  140.0584  165.9817 C.ar    1  UNL1        0.0336
     32 C         140.9349  140.6450  166.9423 C.ar    1  UNL1        0.0783
     33 CL        141.7048  139.7485  167.8661 Cl      1  UNL1       -0.0806
     34 C         141.1565  142.1281  166.9790 C.ar    1  UNL1        0.1102
     35 N         140.3865  143.0246  166.0552 N.ar    1  UNL1       -0.2418
     36 C         139.3949  142.4380  165.0947 C.ar    1  UNL1        0.0950
@<TRIPOS>BOND
     1    12    13    2
     2    13    14    1
     3    14    15    1
     4    15    16    1
     5    16    17   ar
     6    17    18   ar
     7    18    19   ar
     8    19    11    1
     9    11     9    1
    10     9     1    1
    11     1     2    1
    12     2     3    1
    13     3     4    1
    14     4    24    1
    15    24    25    1
    16    25    26    1
    17    26    27   ar
    18    27    28   ar
    19    28    29   ar
    20    29    30   ar
    21    30    31   ar
    22    31    32   ar
    23    32    33    1
    24    32    34   ar
    25    34    35   ar
    26    35    36   ar
    27     4     5    1
    28     5     6    1
    29     4     7    1
    30     7     8    1
    31    19    20   ar
    32    20    21   ar
    33    21    22    1
    34    22    13   am
    35    21    16   ar
    36     6     1    1
    37     8     1    1
    38    36    26   ar
    39    36    30   ar
    40     9    10    1
    41    22    23    1
@<TRIPOS>MOLECULE
*****
 36 41 0 0 0
SMALL
GASTEIGER

@<TRIPOS>ATOM
      1 C         139.6909  137.9808  162.3520 C.3     1  UNL1        0.0700
      2 C         141.1465  138.0267  161.9928 C.3     1  UNL1        0.0193
      3 C         142.1857  138.0439  163.0743 C.3     1  UNL1        0.0286
      4 C         141.7694  138.0151  164.5151 C.3     1  UNL1        0.0932
      5 C         140.3137  137.9691  164.8743 C.3     1  UNL1        0.0286
      6 C         139.2745  137.9520  163.7927 C.3     1  UNL1        0.0193
      7 O         141.1636  138.0042  163.9575 O.3     1  UNL1       -0.3572
      8 C         140.2239  137.9887  162.9796 C.3     1  UNL1        0.1562
      9 N         138.6517  137.9636  161.2705 N.3     1  UNL1       -0.2926
     10 H         139.1508  138.0047  160.3819 H       1  UNL1        0.1236
     11 C         137.5985  139.0308  161.2254 C.3     1  UNL1        0.1152
     12 O         141.8160  145.2266  159.0866 O.2     1  UNL1       -0.2707
     13 C         140.7917  144.6000  159.9856 C.2     1  UNL1        0.2718
     14 C         140.1489  145.4121  161.0707 C.3     1  UNL1        0.2898
     15 O         139.1246  144.7855  161.9696 O.3     1  UNL1       -0.4628
     16 C         138.7430  143.3468  161.7836 C.ar    1  UNL1        0.1708
     17 C         137.7187  142.7202  162.6826 C.ar    1  UNL1        0.0411
     18 C         137.3372  141.2816  162.4965 C.ar    1  UNL1        0.0193
     19 C         137.9800  140.4694  161.4114 C.ar    1  UNL1        0.0765
     20 N         139.0043  141.0960  160.5124 N.ar    1  UNL1       -0.2304
     21 C         139.3858  142.5348  160.6985 C.ar    1  UNL1        0.1682
     22 N         140.4101  143.1613  159.7996 N.am    1  UNL1       -0.2639
     23 H         140.8320  142.6283  159.0874 H       1  UNL1        0.1565
     24 C         142.8086  138.0322  165.5966 C.3     1  UNL1        0.0319
     25 C         143.2217  139.3329  166.2192 C.3     1  UNL1        0.0304
     26 C         143.3401  140.5654  165.3726 C.ar    1  UNL1       -0.0014
     27 C         144.5512  140.7704  164.5116 C.ar    1  UNL1        0.0179
     28 C         144.6696  142.0030  163.6650 C.ar    1  UNL1        0.0986
     29 N         143.5770  143.0306  163.6795 N.ar    1  UNL1       -0.2423
     30 C         142.3660  142.8257  164.5405 C.ar    1  UNL1        0.0995
     31 C         141.2734  143.8533  164.5549 C.ar    1  UNL1        0.0336
     32 C         140.0623  143.6483  165.4160 C.ar    1  UNL1        0.0783
     33 CL        138.9697  144.6759  165.4305 Cl      1  UNL1       -0.0806
     34 C         139.9439  142.4157  166.2626 C.ar    1  UNL1        0.1102
     35 N         141.0365  141.3881  166.2481 N.ar    1  UNL1       -0.2418
     36 C         142.2475  141.5931  165.3871 C.ar    1  UNL1        0.0950
@<TRIPOS>BOND
     1    12    13    2
     2    13    14    1
     3    14    15    1
     4    15    16    1
     5    16    17   ar
     6    17    18   ar
     7    18    19   ar
     8    19    11    1
     9    11     9    1
    10     9     1    1
    11     1     2    1
    12     2     3    1
    13     3     4    1
    14     4    24    1
    15    24    25    1
    16    25    26    1
    17    26    27   ar
    18    27    28   ar
    19    28    29   ar
    20    29    30   ar
    21    30    31   ar
    22    31    32   ar
    23    32    33    1
    24    32    34   ar
    25    34    35   ar
    26    35    36   ar
    27     4     5    1
    28     5     6    1
    29     4     7    1
    30     7     8    1
    31    19    20   ar
    32    20    21   ar
    33    21    22    1
    34    22    13   am
    35    21    16   ar
    36     6     1    1
    37     8     1    1
    38    36    26   ar
    39    36    30   ar
    40     9    10    1
    41    22    23    1
@<TRIPOS>MOLECULE
*****
 36 41 0 0 0
SMALL
GASTEIGER

@<TRIPOS>ATOM
      1 C         142.2680  144.8543  162.8414 C.3     1  UNL1        0.0700
      2 C         142.6578  143.9666  161.6968 C.3     1  UNL1        0.0193
      3 C         143.7667  142.9705  161.8641 C.3     1  UNL1        0.0286
      4 C         144.4859  142.8620  163.1760 C.3     1  UNL1        0.0932
      5 C         144.0961  143.7497  164.3206 C.3     1  UNL1        0.0286
      6 C         142.9871  144.7459  164.1533 C.3     1  UNL1        0.0193
      7 O         143.8847  143.4229  163.1320 O.3     1  UNL1       -0.3572
      8 C         142.8820  144.3236  162.9808 C.3     1  UNL1        0.1562
      9 N         141.1591  145.8504  162.6741 N.3     1  UNL1       -0.2926
     10 H         141.4212  146.6760  163.2127 H       1  UNL1        0.1236
     11 C         139.7611  145.4923  163.0833 C.3     1  UNL1        0.1152
     12 O         137.7141  140.0106  157.9345 O.2     1  UNL1       -0.2707
     13 C         137.8555  140.4703  159.3553 C.2     1  UNL1        0.2718
     14 C         137.4560  139.5625  160.4806 C.3     1  UNL1        0.2898
     15 O         137.5974  140.0223  161.9014 O.3     1  UNL1       -0.4628
     16 C         138.1384  141.3897  162.1969 C.ar    1  UNL1        0.1708
     17 C         138.2798  141.8495  163.6177 C.ar    1  UNL1        0.0411
     18 C         138.8207  143.2169  163.9132 C.ar    1  UNL1        0.0193
     19 C         139.2202  144.1248  162.7878 C.ar    1  UNL1        0.0765
     20 N         139.0788  143.6651  161.3670 N.ar    1  UNL1       -0.2304
     21 C         138.5378  142.2975  161.0716 C.ar    1  UNL1        0.1682
     22 N         138.3964  141.8378  159.6508 N.am    1  UNL1       -0.2639
     23 H         138.6586  142.4336  158.9122 H       1  UNL1        0.1565
     24 C         145.5948  141.8659  163.3433 C.3     1  UNL1        0.0319
     25 C         145.3421  140.5768  164.0674 C.3     1  UNL1        0.0304
     26 C         144.1218  139.7646  163.7493 C.ar    1  UNL1       -0.0014
     27 C         144.0915  138.9067  162.5192 C.ar    1  UNL1        0.0179
     28 C         142.8712  138.0946  162.2011 C.ar    1  UNL1        0.0986
     29 N         141.6812  138.1403  163.1131 N.ar    1  UNL1       -0.2423
     30 C         141.7114  138.9981  164.3432 C.ar    1  UNL1        0.0995
     31 C         140.5214  139.0438  165.2552 C.ar    1  UNL1        0.0336
     32 C         140.5517  139.9017  166.4853 C.ar    1  UNL1        0.0783
     33 CL        139.3617  139.9474  167.3973 Cl      1  UNL1       -0.0806
     34 C         141.7720  140.7139  166.8034 C.ar    1  UNL1        0.1102
     35 N         142.9620  140.6682  165.8914 N.ar    1  UNL1       -0.2418
     36 C         142.9318  139.8103  164.6613 C.ar    1  UNL1        0.0950
@<TRIPOS>BOND
     1    12    13    2
     2    13    14    1
     3    14    15    1
     4    15    16    1
     5    16    17   ar
     6    17    18   ar
     7    18    19   ar
     8    19    11    1
     9    11     9    1
    10     9     1    1
    11     1     2    1
    12     2     3    1
    13     3     4    1
    14     4    24    1
    15    24    25    1
    16    25    26    1
    17    26    27   ar
    18    27    28   ar
    19    28    29   ar
    20    29    30   ar
    21    30    31   ar
    22    31    32   ar
    23    32    33    1
    24    32    34   ar
    25    34    35   ar
    26    35    36   ar
    27     4     5    1
    28     5     6    1
    29     4     7    1
    30     7     8    1
    31    19    20   ar
    32    20    21   ar
    33    21    22    1
    34    22    13   am
    35    21    16   ar
    36     6     1    1
    37     8     1    1
    38    36    26   ar
    39    36    30   ar
    40     9    10    1
    41    22    23    1
@<TRIPOS>MOLECULE
*****
 36 41 0 0 0
SMALL
GASTEIGER

@<TRIPOS>ATOM
      1 C         144.0136  139.5129  163.2363 C.3     1  UNL1        0.0700
      2 C         143.8954  139.0954  164.6722 C.3     1  UNL1        0.0193
      3 C         142.6631  138.3845  165.1475 C.3     1  UNL1        0.0286
      4 C         141.5490  138.0910  164.1869 C.3     1  UNL1        0.0932
      5 C         141.6672  138.5084  162.7511 C.3     1  UNL1        0.0286
      6 C         142.8996  139.2194  162.2758 C.3     1  UNL1        0.0193
      7 O         142.2048  138.4829  163.8800 O.3     1  UNL1       -0.3572
      8 C         143.3191  139.1258  163.4502 C.3     1  UNL1        0.1562
      9 N         145.2459  140.2239  162.7610 N.3     1  UNL1       -0.2926
     10 H         146.0426  139.7450  163.1810 H       1  UNL1        0.1236
     11 C         145.4230  141.6868  163.0414 C.3     1  UNL1        0.1152
     12 O         140.2051  145.8013  158.9679 O.2     1  UNL1       -0.2707
     13 C         140.7603  145.3498  160.2861 C.2     1  UNL1        0.2718
     14 C         140.1314  145.8182  161.5648 C.3     1  UNL1        0.2898
     15 O         140.6866  145.3666  162.8831 O.3     1  UNL1       -0.4628
     16 C         141.8707  144.4467  162.9227 C.ar    1  UNL1        0.1708
     17 C         142.4259  143.9951  164.2410 C.ar    1  UNL1        0.0411
     18 C         143.6100  143.0752  164.2805 C.ar    1  UNL1        0.0193
     19 C         144.2389  142.6067  163.0018 C.ar    1  UNL1        0.0765
     20 N         143.6837  143.0583  161.6835 N.ar    1  UNL1       -0.2304
     21 C         142.4996  143.9783  161.6440 C.ar    1  UNL1        0.1682
     22 N         141.9444  144.4298  160.3257 N.am    1  UNL1       -0.2639
     23 H         142.3571  144.1224  159.4865 H       1  UNL1        0.1565
     24 C         140.3167  137.3800  164.6623 C.3     1  UNL1        0.0319
     25 C         139.1676  138.1643  165.2231 C.3     1  UNL1        0.0304
     26 C         139.1300  139.6556  165.0666 C.ar    1  UNL1       -0.0014
     27 C         138.5326  140.2654  163.8331 C.ar    1  UNL1        0.0179
     28 C         138.4950  141.7567  163.6766 C.ar    1  UNL1        0.0986
     29 N         139.0547  142.6383  164.7534 N.ar    1  UNL1       -0.2423
     30 C         139.6521  142.0285  165.9868 C.ar    1  UNL1        0.0995
     31 C         140.2119  142.9100  167.0636 C.ar    1  UNL1        0.0336
     32 C         140.8093  142.3002  168.2971 C.ar    1  UNL1        0.0783
     33 CL        141.3691  143.1817  169.3739 Cl      1  UNL1       -0.0806
     34 C         140.8469  140.8089  168.4536 C.ar    1  UNL1        0.1102
     35 N         140.2872  139.9273  167.3768 N.ar    1  UNL1       -0.2418
     36 C         139.6898  140.5371  166.1434 C.ar    1  UNL1        0.0950
@<TRIPOS>BOND
     1    12    13    2
     2    13    14    1
     3    14    15    1
     4    15    16    1
     5    16    17   ar
     6    17    18   ar
     7    18    19   ar
     8    19    11    1
     9    11     9    1
    10     9     1    1
    11     1     2    1
    12     2     3    1
    13     3     4    1
    14     4    24    1
    15    24    25    1
    16    25    26    1
    17    26    27   ar
    18    27    28   ar
    19    28    29   ar
    20    29    30   ar
    21    30    31   ar
    22    31    32   ar
    23    32    33    1
    24    32    34   ar
    25    34    35   ar
    26    35    36   ar
    27     4     5    1
    28     5     6    1
    29     4     7    1
    30     7     8    1
    31    19    20   ar
    32    20    21   ar
    33    21    22    1
    34    22    13   am
    35    21    16   ar
    36     6     1    1
    37     8     1    1
    38    36    26   ar
    39    36    30   ar
    40     9    10    1
    41    22    23    1
@<TRIPOS>MOLECULE
*****
 36 41 0 0 0
SMALL
GASTEIGER

@<TRIPOS>ATOM
      1 C         144.9786  141.1034  163.4966 C.3     1  UNL1        0.0700
      2 C         144.4470  139.9397  164.2796 C.3     1  UNL1        0.0193
      3 C         143.7116  138.8367  163.5778 C.3     1  UNL1        0.0286
      4 C         143.5076  138.8975  162.0929 C.3     1  UNL1        0.0932
      5 C         144.0392  140.0613  161.3099 C.3     1  UNL1        0.0286
      6 C         144.7747  141.1643  162.0118 C.3     1  UNL1        0.0193
      7 O         143.9170  139.5256  162.4334 O.3     1  UNL1       -0.3572
      8 C         144.5820  140.5229  163.0680 C.3     1  UNL1        0.1562
      9 N         145.7141  142.2064  164.1984 N.3     1  UNL1       -0.2926
     10 H         146.4302  141.7632  164.7738 H       1  UNL1        0.1236
     11 C         144.9694  143.1561  165.0893 C.3     1  UNL1        0.1152
     12 O         139.2755  146.6241  161.0515 O.2     1  UNL1       -0.2707
     13 C         139.7132  145.7230  162.1680 C.2     1  UNL1        0.2718
     14 C         138.6907  145.0767  163.0549 C.3     1  UNL1        0.2898
     15 O         139.1284  144.1756  164.1714 O.3     1  UNL1       -0.4628
     16 C         140.5886  143.9207  164.4008 C.ar    1  UNL1        0.1708
     17 C         141.0263  143.0196  165.5173 C.ar    1  UNL1        0.0411
     18 C         142.4865  142.7648  165.7468 C.ar    1  UNL1        0.0193
     19 C         143.5092  143.4110  164.8598 C.ar    1  UNL1        0.0765
     20 N         143.0715  144.3121  163.7433 N.ar    1  UNL1       -0.2304
     21 C         141.6111  144.5670  163.5139 C.ar    1  UNL1        0.1682
     22 N         141.1735  145.4681  162.3975 N.am    1  UNL1       -0.2639
     23 H         141.8446  145.8922  161.8153 H       1  UNL1        0.1565
     24 C         142.7722  137.7946  161.3911 C.3     1  UNL1        0.0319
     25 C         141.3403  137.9862  160.9876 C.3     1  UNL1        0.0304
     26 C         140.5541  139.1395  161.5369 C.ar    1  UNL1       -0.0014
     27 C         140.4669  140.4231  160.7654 C.ar    1  UNL1        0.0179
     28 C         139.6808  141.5764  161.3147 C.ar    1  UNL1        0.0986
     29 N         138.9818  141.4463  162.6355 N.ar    1  UNL1       -0.2423
     30 C         139.0689  140.1629  163.4070 C.ar    1  UNL1        0.0995
     31 C         138.3700  140.0328  164.7278 C.ar    1  UNL1        0.0336
     32 C         138.4571  138.7492  165.4992 C.ar    1  UNL1        0.0783
     33 CL        137.7581  138.6191  166.8200 Cl      1  UNL1       -0.0806
     34 C         139.2433  137.5959  164.9499 C.ar    1  UNL1        0.1102
     35 N         139.9423  137.7260  163.6291 N.ar    1  UNL1       -0.2418
     36 C         139.8551  139.0094  162.8577 C.ar    1  UNL1        0.0950
@<TRIPOS>BOND
     1    12    13    2
     2    13    14    1
     3    14    15    1
     4    15    16    1
     5    16    17   ar
     6    17    18   ar
     7    18    19   ar
     8    19    11    1
     9    11     9    1
    10     9     1    1
    11     1     2    1
    12     2     3    1
    13     3     4    1
    14     4    24    1
    15    24    25    1
    16    25    26    1
    17    26    27   ar
    18    27    28   ar
    19    28    29   ar
    20    29    30   ar
    21    30    31   ar
    22    31    32   ar
    23    32    33    1
    24    32    34   ar
    25    34    35   ar
    26    35    36   ar
    27     4     5    1
    28     5     6    1
    29     4     7    1
    30     7     8    1
    31    19    20   ar
    32    20    21   ar
    33    21    22    1
    34    22    13   am
    35    21    16   ar
    36     6     1    1
    37     8     1    1
    38    36    26   ar
    39    36    30   ar
    40     9    10    1
    41    22    23    1
