@<TRIPOS>MOLECULE
*****
 34 38 0 0 0
SMALL
GASTEIGER

@<TRIPOS>ATOM
      1 N         142.5590  143.7268  161.6778 N.3     1  UNL1       -0.2712
      2 C         143.9724  143.3431  161.3534 C.3     1  UNL1        0.0738
      3 C         144.4932  142.4986  162.4784 C.3     1  UNL1        0.0372
      4 C         145.6886  141.7395  162.9732 C.3     1  UNL1        0.0245
      5 C         145.3360  141.1320  164.2986 C.3     1  UNL1        0.0909
      6 N         143.9225  141.5158  164.6229 N.pl3   1  UNL1       -0.3077
      7 C         143.4017  142.3603  163.4980 C.3     1  UNL1        0.0901
      8 C         142.2063  143.1194  163.0032 C.3     1  UNL1        0.0921
      9 C         143.1633  141.1237  165.8558 C.ar    1  UNL1        0.0478
     10 C         143.0097  142.1000  166.9841 C.ar    1  UNL1        0.0145
     11 C         142.2504  141.7079  168.2170 C.ar    1  UNL1        0.0051
     12 C         141.6448  140.3396  168.3214 C.ar    1  UNL1        0.0715
     13 C         141.7985  139.3633  167.1930 C.ar    1  UNL1        0.0051
     14 C         142.5577  139.7553  165.9602 C.ar    1  UNL1        0.0145
     15 C         140.8856  139.9476  169.5543 C.3     1  UNL1        0.4186
     16 F         140.1264  139.5556  170.7871 F       1  UNL1       -0.1659
     17 F         139.6973  140.7241  169.0694 F       1  UNL1       -0.1659
     18 F         142.0739  139.1711  170.0391 F       1  UNL1       -0.1659
     19 C         141.6567  144.5699  160.8263 C.3     1  UNL1        0.0731
     20 C         140.1706  144.5104  161.0210 C.3     1  UNL1        0.0294
     21 C         139.5083  145.4120  162.0202 C.3     1  UNL1        0.0666
     22 S         138.4460  144.8706  162.9304 S.3     1  UNL1       -0.0756
     23 C         137.6511  141.7279  162.5548 C.3     1  UNL1        0.1340
     24 N         138.4050  142.3146  163.7113 N.ar    1  UNL1       -0.2884
     25 C         138.7704  143.7591  163.8839 C.ar    1  UNL1        0.1932
     26 N         139.5172  143.8970  165.1774 N.ar    1  UNL1       -0.1221
     27 N         139.6134  142.5377  165.8043 N.ar    1  UNL1       -0.1282
     28 C         138.9261  141.5596  164.8982 C.ar    1  UNL1        0.1684
     29 C         138.7846  140.0855  165.1371 C.ar    1  UNL1        0.0585
     30 C         138.0616  139.5889  166.3539 C.ar    1  UNL1        0.0272
     31 C         137.9201  138.1148  166.5927 C.ar    1  UNL1        0.1223
     32 N         138.5016  137.1374  165.6146 N.ar    1  UNL1       -0.1464
     33 N         139.2246  137.6340  164.3978 N.ar    1  UNL1       -0.1463
     34 C         139.3661  139.1081  164.1591 C.ar    1  UNL1        0.1252
@<TRIPOS>BOND
     1    23    24    1
     2    24    25   ar
     3    25    22    1
     4    22    21    1
     5    21    20    1
     6    20    19    1
     7    19     1    1
     8     1     2    1
     9     2     3    1
    10     3     4    1
    11     4     5    1
    12     5     6    1
    13     6     9    1
    14     9    10   ar
    15    10    11   ar
    16    11    12   ar
    17    12    15    1
    18    15    16    1
    19    15    17    1
    20    15    18    1
    21    12    13   ar
    22    13    14   ar
    23     6     7    1
    24     7     8    1
    25    25    26   ar
    26    26    27   ar
    27    27    28   ar
    28    28    29    1
    29    29    30   ar
    30    30    31   ar
    31    31    32   ar
    32    32    33   ar
    33    33    34   ar
    34    28    24   ar
    35    34    29   ar
    36     8     1    1
    37     7     3    1
    38    14     9   ar
@<TRIPOS>MOLECULE
*****
 34 38 0 0 0
SMALL
GASTEIGER

@<TRIPOS>ATOM
      1 N         142.4285  138.0325  162.7571 N.3     1  UNL1       -0.2712
      2 C         141.0457  137.4512  162.7522 C.3     1  UNL1        0.0738
      3 C         140.3281  137.9523  163.9704 C.3     1  UNL1        0.0372
      4 C         139.0299  137.9027  164.7203 C.3     1  UNL1        0.0245
      5 C         139.1668  138.7630  165.9414 C.3     1  UNL1        0.0909
      6 N         140.5496  139.3442  165.9462 N.pl3   1  UNL1       -0.3077
      7 C         141.2673  138.8432  164.7281 C.3     1  UNL1        0.0901
      8 C         142.5654  138.8928  163.9782 C.3     1  UNL1        0.0921
      9 C         141.1154  140.2649  166.9866 C.ar    1  UNL1        0.0478
     10 C         142.3437  139.8685  167.7508 C.ar    1  UNL1        0.0145
     11 C         142.9095  140.7891  168.7911 C.ar    1  UNL1        0.0051
     12 C         142.2469  142.1062  169.0672 C.ar    1  UNL1        0.0715
     13 C         141.0186  142.5027  168.3030 C.ar    1  UNL1        0.0051
     14 C         140.4528  141.5821  167.2627 C.ar    1  UNL1        0.0145
     15 C         142.8127  143.0269  170.1076 C.3     1  UNL1        0.4186
     16 F         143.3785  143.9476  171.1479 F       1  UNL1       -0.1659
     17 F         144.0669  142.2054  170.1525 F       1  UNL1       -0.1659
     18 F         141.5585  143.8484  170.0627 F       1  UNL1       -0.1659
     19 C         143.4883  137.7951  161.7225 C.3     1  UNL1        0.0731
     20 C         143.5084  138.6163  160.4674 C.3     1  UNL1        0.0294
     21 C         142.7533  138.1542  159.2565 C.3     1  UNL1        0.0666
     22 S         141.6048  138.9654  158.7340 S.3     1  UNL1       -0.0756
     23 C         141.4615  141.7346  160.4547 C.3     1  UNL1        0.1340
     24 N         140.4287  140.6469  160.4470 N.ar    1  UNL1       -0.2884
     25 C         140.4945  139.3740  159.6562 C.ar    1  UNL1        0.1932
     26 N         139.2552  138.5815  159.9492 N.ar    1  UNL1       -0.1221
     27 N         138.4233  139.3645  160.9213 N.ar    1  UNL1       -0.1282
     28 C         139.1485  140.6411  161.2290 C.ar    1  UNL1        0.1684
     29 C         138.6766  141.7219  162.1558 C.ar    1  UNL1        0.0585
     30 C         138.6126  141.4683  163.6329 C.ar    1  UNL1        0.0272
     31 C         138.1407  142.5491  164.5597 C.ar    1  UNL1        0.1223
     32 N         137.7326  143.8836  164.0094 N.ar    1  UNL1       -0.1464
     33 N         137.7965  144.1372  162.5324 N.ar    1  UNL1       -0.1463
     34 C         138.2685  143.0563  161.6056 C.ar    1  UNL1        0.1252
@<TRIPOS>BOND
     1    23    24    1
     2    24    25   ar
     3    25    22    1
     4    22    21    1
     5    21    20    1
     6    20    19    1
     7    19     1    1
     8     1     2    1
     9     2     3    1
    10     3     4    1
    11     4     5    1
    12     5     6    1
    13     6     9    1
    14     9    10   ar
    15    10    11   ar
    16    11    12   ar
    17    12    15    1
    18    15    16    1
    19    15    17    1
    20    15    18    1
    21    12    13   ar
    22    13    14   ar
    23     6     7    1
    24     7     8    1
    25    25    26   ar
    26    26    27   ar
    27    27    28   ar
    28    28    29    1
    29    29    30   ar
    30    30    31   ar
    31    31    32   ar
    32    32    33   ar
    33    33    34   ar
    34    28    24   ar
    35    34    29   ar
    36     8     1    1
    37     7     3    1
    38    14     9   ar
@<TRIPOS>MOLECULE
*****
 34 38 0 0 0
SMALL
GASTEIGER

@<TRIPOS>ATOM
      1 N         142.2971  138.0454  162.6265 N.3     1  UNL1       -0.2712
      2 C         140.9192  137.4528  162.6398 C.3     1  UNL1        0.0738
      3 C         140.2212  137.9303  163.8786 C.3     1  UNL1        0.0372
      4 C         138.9382  137.8592  164.6525 C.3     1  UNL1        0.0245
      5 C         139.0917  138.7030  165.8832 C.3     1  UNL1        0.0909
      6 N         140.4697  139.2957  165.8698 N.pl3   1  UNL1       -0.3077
      7 C         141.1677  138.8181  164.6310 C.3     1  UNL1        0.0901
      8 C         142.4507  138.8892  163.8571 C.3     1  UNL1        0.0921
      9 C         141.0480  140.2060  166.9123 C.ar    1  UNL1        0.0478
     10 C         140.3438  141.4817  167.2681 C.ar    1  UNL1        0.0145
     11 C         140.9221  142.3921  168.3106 C.ar    1  UNL1        0.0051
     12 C         142.2047  142.0267  168.9973 C.ar    1  UNL1        0.0715
     13 C         142.9089  140.7509  168.6415 C.ar    1  UNL1        0.0051
     14 C         142.3306  139.8406  167.5990 C.ar    1  UNL1        0.0145
     15 C         142.7830  142.9370  170.0398 C.3     1  UNL1        0.4186
     16 F         143.3613  143.8474  171.0823 F       1  UNL1       -0.1659
     17 F         144.0016  142.0664  170.1241 F       1  UNL1       -0.1659
     18 F         141.5644  143.8076  169.9556 F       1  UNL1       -0.1659
     19 C         143.3386  137.8318  161.5684 C.3     1  UNL1        0.0731
     20 C         143.3063  138.6459  160.3090 C.3     1  UNL1        0.0294
     21 C         144.0059  139.9717  160.2548 C.3     1  UNL1        0.0666
     22 S         143.3357  141.1475  159.6082 S.3     1  UNL1       -0.0756
     23 C         140.5964  140.9441  161.3703 C.3     1  UNL1        0.1340
     24 N         141.4912  142.1436  161.2668 N.ar    1  UNL1       -0.2884
     25 C         142.7502  142.2371  160.4568 C.ar    1  UNL1        0.1932
     26 N         143.3212  143.6115  160.6445 N.ar    1  UNL1       -0.1221
     27 N         142.4149  144.3674  161.5704 N.ar    1  UNL1       -0.1282
     28 C         141.2839  143.4602  161.9551 C.ar    1  UNL1        0.1684
     29 C         140.1455  143.8085  162.8677 C.ar    1  UNL1        0.0585
     30 C         140.4004  144.0509  164.3258 C.ar    1  UNL1        0.0272
     31 C         139.2620  144.3991  165.2384 C.ar    1  UNL1        0.1223
     32 N         137.8688  144.5050  164.6927 N.ar    1  UNL1       -0.1464
     33 N         137.6139  144.2627  163.2346 N.ar    1  UNL1       -0.1463
     34 C         138.7524  143.9144  162.3220 C.ar    1  UNL1        0.1252
@<TRIPOS>BOND
     1    23    24    1
     2    24    25   ar
     3    25    22    1
     4    22    21    1
     5    21    20    1
     6    20    19    1
     7    19     1    1
     8     1     2    1
     9     2     3    1
    10     3     4    1
    11     4     5    1
    12     5     6    1
    13     6     9    1
    14     9    10   ar
    15    10    11   ar
    16    11    12   ar
    17    12    15    1
    18    15    16    1
    19    15    17    1
    20    15    18    1
    21    12    13   ar
    22    13    14   ar
    23     6     7    1
    24     7     8    1
    25    25    26   ar
    26    26    27   ar
    27    27    28   ar
    28    28    29    1
    29    29    30   ar
    30    30    31   ar
    31    31    32   ar
    32    32    33   ar
    33    33    34   ar
    34    28    24   ar
    35    34    29   ar
    36     8     1    1
    37     7     3    1
    38    14     9   ar
@<TRIPOS>MOLECULE
*****
 34 38 0 0 0
SMALL
GASTEIGER

@<TRIPOS>ATOM
      1 N         141.1155  143.3934  160.0744 N.3     1  UNL1       -0.2712
      2 C         141.4417  144.6804  160.7724 C.3     1  UNL1        0.0738
      3 C         141.1073  144.5172  162.2255 C.3     1  UNL1        0.0372
      4 C         141.1023  145.2117  163.5550 C.3     1  UNL1        0.0245
      5 C         140.5664  144.2531  164.5768 C.3     1  UNL1        0.0909
      6 N         140.2403  142.9661  163.8787 N.pl3   1  UNL1       -0.3077
      7 C         140.5746  143.1293  162.4256 C.3     1  UNL1        0.0901
      8 C         140.5797  142.4348  161.0961 C.3     1  UNL1        0.0921
      9 C         139.6785  141.7325  164.5210 C.ar    1  UNL1        0.0478
     10 C         140.1339  141.3266  165.8913 C.ar    1  UNL1        0.0145
     11 C         139.5721  140.0930  166.5337 C.ar    1  UNL1        0.0051
     12 C         138.5549  139.2652  165.8057 C.ar    1  UNL1        0.0715
     13 C         138.0994  139.6711  164.4353 C.ar    1  UNL1        0.0051
     14 C         138.6612  140.9047  163.7929 C.ar    1  UNL1        0.0145
     15 C         137.9931  138.0316  166.4480 C.3     1  UNL1        0.4186
     16 F         137.4313  136.7980  167.0903 F       1  UNL1       -0.1659
     17 F         137.3905  138.8719  167.5347 F       1  UNL1       -0.1659
     18 F         138.5957  137.1914  165.3613 F       1  UNL1       -0.1659
     19 C         141.2939  143.1140  158.6114 C.3     1  UNL1        0.0731
     20 C         142.5917  143.4471  157.9371 C.3     1  UNL1        0.0294
     21 C         143.6957  142.4325  157.8921 C.3     1  UNL1        0.0666
     22 S         144.7794  142.4569  158.9289 S.3     1  UNL1       -0.0756
     23 C         143.7790  139.6232  160.2011 C.3     1  UNL1        0.1340
     24 N         143.9850  140.9039  160.9542 N.ar    1  UNL1       -0.2884
     25 C         144.4448  142.2065  160.3695 C.ar    1  UNL1        0.1932
     26 N         144.5113  143.2146  161.4782 N.ar    1  UNL1       -0.1221
     27 N         144.0926  142.5351  162.7482 N.ar    1  UNL1       -0.1282
     28 C         143.7672  141.1070  162.4245 C.ar    1  UNL1        0.1684
     29 C         143.3053  140.0651  163.3996 C.ar    1  UNL1        0.0585
     30 C         144.1329  139.7521  164.6109 C.ar    1  UNL1        0.0272
     31 C         143.6710  138.7101  165.5860 C.ar    1  UNL1        0.1223
     32 N         142.3814  137.9812  165.3499 N.ar    1  UNL1       -0.1464
     33 N         141.5538  138.2942  164.1387 N.ar    1  UNL1       -0.1463
     34 C         142.0158  139.3362  163.1635 C.ar    1  UNL1        0.1252
@<TRIPOS>BOND
     1    23    24    1
     2    24    25   ar
     3    25    22    1
     4    22    21    1
     5    21    20    1
     6    20    19    1
     7    19     1    1
     8     1     2    1
     9     2     3    1
    10     3     4    1
    11     4     5    1
    12     5     6    1
    13     6     9    1
    14     9    10   ar
    15    10    11   ar
    16    11    12   ar
    17    12    15    1
    18    15    16    1
    19    15    17    1
    20    15    18    1
    21    12    13   ar
    22    13    14   ar
    23     6     7    1
    24     7     8    1
    25    25    26   ar
    26    26    27   ar
    27    27    28   ar
    28    28    29    1
    29    29    30   ar
    30    30    31   ar
    31    31    32   ar
    32    32    33   ar
    33    33    34   ar
    34    28    24   ar
    35    34    29   ar
    36     8     1    1
    37     7     3    1
    38    14     9   ar
@<TRIPOS>MOLECULE
*****
 34 38 0 0 0
SMALL
GASTEIGER

@<TRIPOS>ATOM
      1 N         143.0098  141.8966  160.5893 N.3     1  UNL1       -0.2712
      2 C         142.7190  141.1429  159.3254 C.3     1  UNL1        0.0738
      3 C         141.6700  140.1149  159.6297 C.3     1  UNL1        0.0372
      4 C         140.8418  139.0138  159.0366 C.3     1  UNL1        0.0245
      5 C         139.9724  138.4515  160.1220 C.3     1  UNL1        0.0909
      6 N         140.2633  139.2052  161.3860 N.pl3   1  UNL1       -0.3077
      7 C         141.3124  140.2332  161.0817 C.3     1  UNL1        0.0901
      8 C         142.1405  141.3343  161.6748 C.3     1  UNL1        0.0921
      9 C         139.6183  138.9718  162.7200 C.ar    1  UNL1        0.0478
     10 C         139.0546  140.1271  163.4929 C.ar    1  UNL1        0.0145
     11 C         138.4095  139.8937  164.8268 C.ar    1  UNL1        0.0051
     12 C         138.3282  138.5050  165.3879 C.ar    1  UNL1        0.0715
     13 C         138.8920  137.3496  164.6150 C.ar    1  UNL1        0.0051
     14 C         139.5370  137.5830  163.2810 C.ar    1  UNL1        0.0145
     15 C         137.6832  138.2716  166.7219 C.3     1  UNL1        0.4186
     16 F         137.0382  138.0382  168.0558 F       1  UNL1       -0.1659
     17 F         137.5200  139.7518  166.9019 F       1  UNL1       -0.1659
     18 F         137.8465  136.7914  166.5418 F       1  UNL1       -0.1659
     19 C         143.9967  143.0159  160.7412 C.3     1  UNL1        0.0731
     20 C         144.4423  143.4426  162.1084 C.3     1  UNL1        0.0294
     21 C         143.6779  144.4981  162.8511 C.3     1  UNL1        0.0666
     22 S         142.4063  144.1423  163.5628 S.3     1  UNL1       -0.0756
     23 C         139.8651  143.4780  165.4994 C.3     1  UNL1        0.1340
     24 N         141.2896  143.0780  165.7457 N.ar    1  UNL1       -0.2884
     25 C         142.4577  143.3833  164.8556 C.ar    1  UNL1        0.1932
     26 N         143.6862  142.7964  165.4852 N.ar    1  UNL1       -0.1221
     27 N         143.2773  142.1283  166.7645 N.ar    1  UNL1       -0.1282
     28 C         141.7961  142.3023  166.9255 C.ar    1  UNL1        0.1684
     29 C         140.9671  141.7906  168.0661 C.ar    1  UNL1        0.0585
     30 C         140.5218  142.7277  169.1493 C.ar    1  UNL1        0.0272
     31 C         139.6928  142.2160  170.2898 C.ar    1  UNL1        0.1223
     32 N         139.3091  140.7669  170.3471 N.ar    1  UNL1       -0.1464
     33 N         139.7544  139.8298  169.2639 N.ar    1  UNL1       -0.1463
     34 C         140.5835  140.3416  168.1233 C.ar    1  UNL1        0.1252
@<TRIPOS>BOND
     1    23    24    1
     2    24    25   ar
     3    25    22    1
     4    22    21    1
     5    21    20    1
     6    20    19    1
     7    19     1    1
     8     1     2    1
     9     2     3    1
    10     3     4    1
    11     4     5    1
    12     5     6    1
    13     6     9    1
    14     9    10   ar
    15    10    11   ar
    16    11    12   ar
    17    12    15    1
    18    15    16    1
    19    15    17    1
    20    15    18    1
    21    12    13   ar
    22    13    14   ar
    23     6     7    1
    24     7     8    1
    25    25    26   ar
    26    26    27   ar
    27    27    28   ar
    28    28    29    1
    29    29    30   ar
    30    30    31   ar
    31    31    32   ar
    32    32    33   ar
    33    33    34   ar
    34    28    24   ar
    35    34    29   ar
    36     8     1    1
    37     7     3    1
    38    14     9   ar
@<TRIPOS>MOLECULE
*****
 34 38 0 0 0
SMALL
GASTEIGER

@<TRIPOS>ATOM
      1 N         142.3261  143.8677  161.9605 N.3     1  UNL1       -0.2712
      2 C         143.6390  143.2857  161.5274 C.3     1  UNL1        0.0738
      3 C         144.0895  142.3211  162.5840 C.3     1  UNL1        0.0372
      4 C         145.1794  141.3652  162.9694 C.3     1  UNL1        0.0245
      5 C         144.8185  140.7601  164.2937 C.3     1  UNL1        0.0909
      6 N         143.5055  141.3421  164.7268 N.pl3   1  UNL1       -0.3077
      7 C         143.0550  142.3068  163.6701 C.3     1  UNL1        0.0901
      8 C         141.9652  143.2627  163.2848 C.3     1  UNL1        0.0921
      9 C         142.7719  141.0166  165.9940 C.ar    1  UNL1        0.0478
     10 C         141.9225  142.0595  166.6579 C.ar    1  UNL1        0.0145
     11 C         141.1889  141.7339  167.9252 C.ar    1  UNL1        0.0051
     12 C         141.3047  140.3655  168.5284 C.ar    1  UNL1        0.0715
     13 C         142.1541  139.3225  167.8644 C.ar    1  UNL1        0.0051
     14 C         142.8877  139.6481  166.5972 C.ar    1  UNL1        0.0145
     15 C         140.5711  140.0399  169.7956 C.3     1  UNL1        0.4186
     16 F         139.8375  139.7144  171.0628 F       1  UNL1       -0.1659
     17 F         139.5332  141.0693  169.4592 F       1  UNL1       -0.1659
     18 F         141.6090  139.0106  170.1320 F       1  UNL1       -0.1659
     19 C         141.5163  144.8774  161.2024 C.3     1  UNL1        0.0731
     20 C         141.4013  144.7789  159.7101 C.3     1  UNL1        0.0294
     21 C         140.1104  144.3404  159.0845 C.3     1  UNL1        0.0666
     22 S         139.6670  142.9123  159.2024 S.3     1  UNL1       -0.0756
     23 C         140.6881  140.4483  161.0827 C.3     1  UNL1        0.1340
     24 N         139.4780  141.3005  161.3264 N.ar    1  UNL1       -0.2884
     25 C         139.0086  142.4331  160.4621 C.ar    1  UNL1        0.1932
     26 N         137.7653  143.0023  161.0787 N.ar    1  UNL1       -0.1221
     27 N         137.4663  142.2215  162.3241 N.ar    1  UNL1       -0.1282
     28 C         138.5247  141.1697  162.4772 C.ar    1  UNL1        0.1684
     29 C         138.6143  140.1638  163.5864 C.ar    1  UNL1        0.0585
     30 C         138.6029  140.6200  165.0153 C.ar    1  UNL1        0.0272
     31 C         138.6924  139.6141  166.1244 C.ar    1  UNL1        0.1223
     32 N         138.7933  138.1520  165.8045 N.ar    1  UNL1       -0.1464
     33 N         138.8046  137.6959  164.3756 N.ar    1  UNL1       -0.1463
     34 C         138.7151  138.7018  163.2665 C.ar    1  UNL1        0.1252
@<TRIPOS>BOND
     1    23    24    1
     2    24    25   ar
     3    25    22    1
     4    22    21    1
     5    21    20    1
     6    20    19    1
     7    19     1    1
     8     1     2    1
     9     2     3    1
    10     3     4    1
    11     4     5    1
    12     5     6    1
    13     6     9    1
    14     9    10   ar
    15    10    11   ar
    16    11    12   ar
    17    12    15    1
    18    15    16    1
    19    15    17    1
    20    15    18    1
    21    12    13   ar
    22    13    14   ar
    23     6     7    1
    24     7     8    1
    25    25    26   ar
    26    26    27   ar
    27    27    28   ar
    28    28    29    1
    29    29    30   ar
    30    30    31   ar
    31    31    32   ar
    32    32    33   ar
    33    33    34   ar
    34    28    24   ar
    35    34    29   ar
    36     8     1    1
    37     7     3    1
    38    14     9   ar
@<TRIPOS>MOLECULE
*****
 34 38 0 0 0
SMALL
GASTEIGER

@<TRIPOS>ATOM
      1 N         139.9290  142.7480  159.6531 N.3     1  UNL1       -0.2712
      2 C         140.1572  141.6133  158.6990 C.3     1  UNL1        0.0738
      3 C         139.9457  140.3299  159.4460 C.3     1  UNL1        0.0372
      4 C         139.9560  138.8354  159.3181 C.3     1  UNL1        0.0245
      5 C         139.6035  138.2532  160.6548 C.3     1  UNL1        0.0909
      6 N         139.3753  139.3880  161.6089 N.pl3   1  UNL1       -0.3077
      7 C         139.5868  140.6714  160.8619 C.3     1  UNL1        0.0901
      8 C         139.5765  142.1659  160.9898 C.3     1  UNL1        0.0921
      9 C         139.0013  139.2615  163.0560 C.ar    1  UNL1        0.0478
     10 C         139.1673  137.9483  163.7616 C.ar    1  UNL1        0.0145
     11 C         138.7933  137.8218  165.2087 C.ar    1  UNL1        0.0051
     12 C         138.2532  139.0086  165.9503 C.ar    1  UNL1        0.0715
     13 C         138.0871  140.3219  165.2447 C.ar    1  UNL1        0.0051
     14 C         138.4611  140.4483  163.7976 C.ar    1  UNL1        0.0145
     15 C         137.8792  138.8821  167.3974 C.3     1  UNL1        0.4186
     16 F         137.5051  138.7556  168.8445 F       1  UNL1       -0.1659
     17 F         138.8563  139.9659  167.7446 F       1  UNL1       -0.1659
     18 F         136.9021  137.7982  167.0501 F       1  UNL1       -0.1659
     19 C         140.0348  144.2085  159.3276 C.3     1  UNL1        0.0731
     20 C         140.8307  145.1189  160.2151 C.3     1  UNL1        0.0294
     21 C         140.2983  145.5063  161.5629 C.3     1  UNL1        0.0666
     22 S         141.2009  145.4834  162.7607 S.3     1  UNL1       -0.0756
     23 C         143.2392  143.2469  163.9826 C.3     1  UNL1        0.1340
     24 N         141.8462  143.5265  164.4634 N.ar    1  UNL1       -0.2884
     25 C         140.9092  144.5544  163.9018 C.ar    1  UNL1        0.1932
     26 N         139.6294  144.4904  164.6815 N.ar    1  UNL1       -0.1221
     27 N         139.7754  143.4228  165.7251 N.ar    1  UNL1       -0.1282
     28 C         141.1454  142.8270  165.5903 C.ar    1  UNL1        0.1684
     29 C         141.7147  141.7253  166.4342 C.ar    1  UNL1        0.0585
     30 C         141.7263  140.3163  165.9200 C.ar    1  UNL1        0.0272
     31 C         142.2956  139.2146  166.7639 C.ar    1  UNL1        0.1223
     32 N         142.8532  139.5221  168.1221 N.ar    1  UNL1       -0.1464
     33 N         142.8416  140.9311  168.6363 N.ar    1  UNL1       -0.1463
     34 C         142.2723  142.0328  167.7923 C.ar    1  UNL1        0.1252
@<TRIPOS>BOND
     1    23    24    1
     2    24    25   ar
     3    25    22    1
     4    22    21    1
     5    21    20    1
     6    20    19    1
     7    19     1    1
     8     1     2    1
     9     2     3    1
    10     3     4    1
    11     4     5    1
    12     5     6    1
    13     6     9    1
    14     9    10   ar
    15    10    11   ar
    16    11    12   ar
    17    12    15    1
    18    15    16    1
    19    15    17    1
    20    15    18    1
    21    12    13   ar
    22    13    14   ar
    23     6     7    1
    24     7     8    1
    25    25    26   ar
    26    26    27   ar
    27    27    28   ar
    28    28    29    1
    29    29    30   ar
    30    30    31   ar
    31    31    32   ar
    32    32    33   ar
    33    33    34   ar
    34    28    24   ar
    35    34    29   ar
    36     8     1    1
    37     7     3    1
    38    14     9   ar
@<TRIPOS>MOLECULE
*****
 34 38 0 0 0
SMALL
GASTEIGER

@<TRIPOS>ATOM
      1 N         142.8719  138.8525  163.0835 N.3     1  UNL1       -0.2712
      2 C         144.0788  139.6128  162.6195 C.3     1  UNL1        0.0738
      3 C         144.2765  140.7774  163.5440 C.3     1  UNL1        0.0372
      4 C         145.1446  141.9671  163.8285 C.3     1  UNL1        0.0245
      5 C         144.5965  142.6619  165.0397 C.3     1  UNL1        0.0909
      6 N         143.3896  141.9015  165.5037 N.pl3   1  UNL1       -0.3077
      7 C         143.1919  140.7368  164.5793 C.3     1  UNL1        0.0901
      8 C         142.3237  139.5471  164.2947 C.3     1  UNL1        0.0921
      9 C         142.5312  142.2453  166.6847 C.ar    1  UNL1        0.0478
     10 C         143.1393  142.3360  168.0529 C.ar    1  UNL1        0.0145
     11 C         142.2809  142.6799  169.2339 C.ar    1  UNL1        0.0051
     12 C         140.8143  142.9331  169.0468 C.ar    1  UNL1        0.0715
     13 C         140.2061  142.8424  167.6786 C.ar    1  UNL1        0.0051
     14 C         141.0645  142.4985  166.4976 C.ar    1  UNL1        0.0145
     15 C         139.9559  143.2770  170.2279 C.3     1  UNL1        0.4186
     16 F         139.0975  143.6209  171.4089 F       1  UNL1       -0.1659
     17 F         140.4359  144.6967  170.1633 F       1  UNL1       -0.1659
     18 F         139.4759  141.8574  170.2924 F       1  UNL1       -0.1659
     19 C         142.3115  137.6147  162.4480 C.3     1  UNL1        0.0731
     20 C         140.8959  137.6013  161.9521 C.3     1  UNL1        0.0294
     21 C         139.7603  137.5069  162.9277 C.3     1  UNL1        0.0666
     22 S         138.5651  138.4003  162.7761 S.3     1  UNL1       -0.0756
     23 C         140.0233  140.8665  161.2136 C.3     1  UNL1        0.1340
     24 N         139.2997  140.9581  162.5244 N.ar    1  UNL1       -0.2884
     25 C         138.6294  139.8245  163.2425 C.ar    1  UNL1        0.1932
     26 N         138.0347  140.3651  164.5091 N.ar    1  UNL1       -0.1221
     27 N         138.3375  141.8328  164.5737 N.ar    1  UNL1       -0.1282
     28 C         139.1193  142.1994  163.3471 C.ar    1  UNL1        0.1684
     29 C         139.6308  143.5670  163.0035 C.ar    1  UNL1        0.0585
     30 C         138.7382  144.5472  162.3018 C.ar    1  UNL1        0.0272
     31 C         139.2498  145.9148  161.9583 C.ar    1  UNL1        0.1223
     32 N         140.6540  146.3021  162.3165 N.ar    1  UNL1       -0.1464
     33 N         141.5466  145.3218  163.0182 N.ar    1  UNL1       -0.1463
     34 C         141.0350  143.9542  163.3617 C.ar    1  UNL1        0.1252
@<TRIPOS>BOND
     1    23    24    1
     2    24    25   ar
     3    25    22    1
     4    22    21    1
     5    21    20    1
     6    20    19    1
     7    19     1    1
     8     1     2    1
     9     2     3    1
    10     3     4    1
    11     4     5    1
    12     5     6    1
    13     6     9    1
    14     9    10   ar
    15    10    11   ar
    16    11    12   ar
    17    12    15    1
    18    15    16    1
    19    15    17    1
    20    15    18    1
    21    12    13   ar
    22    13    14   ar
    23     6     7    1
    24     7     8    1
    25    25    26   ar
    26    26    27   ar
    27    27    28   ar
    28    28    29    1
    29    29    30   ar
    30    30    31   ar
    31    31    32   ar
    32    32    33   ar
    33    33    34   ar
    34    28    24   ar
    35    34    29   ar
    36     8     1    1
    37     7     3    1
    38    14     9   ar
@<TRIPOS>MOLECULE
*****
 34 38 0 0 0
SMALL
GASTEIGER

@<TRIPOS>ATOM
      1 N         143.1637  143.8479  162.7650 N.3     1  UNL1       -0.2712
      2 C         142.0585  144.7147  162.2387 C.3     1  UNL1        0.0738
      3 C         140.8837  144.5790  163.1614 C.3     1  UNL1        0.0372
      4 C         139.4745  145.0309  163.4063 C.3     1  UNL1        0.0245
      5 C         138.9827  144.3595  164.6543 C.3     1  UNL1        0.0909
      6 N         140.0880  143.4926  165.1806 N.pl3   1  UNL1       -0.3077
      7 C         141.2628  143.6283  164.2579 C.3     1  UNL1        0.0901
      8 C         142.6720  143.1764  164.0129 C.3     1  UNL1        0.0921
      9 C         140.0288  142.6398  166.4131 C.ar    1  UNL1        0.0478
     10 C         139.7011  141.1804  166.3004 C.ar    1  UNL1        0.0145
     11 C         139.6419  140.3276  167.5329 C.ar    1  UNL1        0.0051
     12 C         139.9104  140.9341  168.8782 C.ar    1  UNL1        0.0715
     13 C         140.2381  142.3936  168.9911 C.ar    1  UNL1        0.0051
     14 C         140.2973  143.2464  167.7585 C.ar    1  UNL1        0.0145
     15 C         139.8512  140.0813  170.1108 C.3     1  UNL1        0.4186
     16 F         139.7920  139.2285  171.3434 F       1  UNL1       -0.1659
     17 F         138.4243  140.4909  170.3257 F       1  UNL1       -0.1659
     18 F         141.2781  139.6717  169.8959 F       1  UNL1       -0.1659
     19 C         144.5222  143.6816  162.1511 C.3     1  UNL1        0.0731
     20 C         144.8242  142.4744  161.3136 C.3     1  UNL1        0.0294
     21 C         144.4679  142.4642  159.8565 C.3     1  UNL1        0.0666
     22 S         143.9086  141.2215  159.2299 S.3     1  UNL1       -0.0756
     23 C         141.2474  141.2312  161.1186 C.3     1  UNL1        0.1340
     24 N         142.2151  140.0955  160.9646 N.ar    1  UNL1       -0.2884
     25 C         143.4383  140.0910  160.0964 C.ar    1  UNL1        0.1932
     26 N         144.1087  138.7576  160.2469 N.ar    1  UNL1       -0.1221
     27 N         143.2998  137.9380  161.2081 N.ar    1  UNL1       -0.1282
     28 C         142.1294  138.7648  161.6517 C.ar    1  UNL1        0.1684
     29 C         141.0611  138.3363  162.6135 C.ar    1  UNL1        0.0585
     30 C         139.6791  138.0352  162.1140 C.ar    1  UNL1        0.0272
     31 C         138.6108  137.6066  163.0757 C.ar    1  UNL1        0.1223
     32 N         138.9245  137.4792  164.5371 N.ar    1  UNL1       -0.1464
     33 N         140.3065  137.7803  165.0366 N.ar    1  UNL1       -0.1463
     34 C         141.3748  138.2089  164.0747 C.ar    1  UNL1        0.1252
@<TRIPOS>BOND
     1    23    24    1
     2    24    25   ar
     3    25    22    1
     4    22    21    1
     5    21    20    1
     6    20    19    1
     7    19     1    1
     8     1     2    1
     9     2     3    1
    10     3     4    1
    11     4     5    1
    12     5     6    1
    13     6     9    1
    14     9    10   ar
    15    10    11   ar
    16    11    12   ar
    17    12    15    1
    18    15    16    1
    19    15    17    1
    20    15    18    1
    21    12    13   ar
    22    13    14   ar
    23     6     7    1
    24     7     8    1
    25    25    26   ar
    26    26    27   ar
    27    27    28   ar
    28    28    29    1
    29    29    30   ar
    30    30    31   ar
    31    31    32   ar
    32    32    33   ar
    33    33    34   ar
    34    28    24   ar
    35    34    29   ar
    36     8     1    1
    37     7     3    1
    38    14     9   ar
