@<TRIPOS>MOLECULE
*****
 39 43 0 0 0
SMALL
GASTEIGER

@<TRIPOS>ATOM
      1 C         142.9105  143.5583  161.3533 C.3     1  UNL1        0.0993
      2 N         142.3479  144.0817  160.0650 N.3     1  UNL1       -0.2687
      3 C         142.9379  143.6455  158.7568 C.3     1  UNL1        0.0760
      4 C         142.3753  144.1689  157.4686 C.3     1  UNL1        0.0575
      5 C         141.2225  145.1285  157.4887 C.3     1  UNL1        0.1391
      6 C         140.6324  145.5647  158.7969 C.3     1  UNL1        0.0575
      7 C         141.1951  145.0413  160.0851 C.3     1  UNL1        0.0760
      8 C         140.0777  146.0881  157.3519 C.3     1  UNL1        0.0516
      9 C         139.8535  146.3369  155.8897 C.3     1  UNL1        0.1068
     10 C         140.8598  145.5310  155.1228 C.2     1  UNL1        0.3167
     11 O         140.9960  145.4808  153.6299 O.2     1  UNL1       -0.2501
     12 O         141.7058  144.7842  156.1110 O.3     1  UNL1       -0.4556
     13 C         138.8069  147.2340  155.2983 C.3     1  UNL1        0.0376
     14 C         139.1125  148.6814  155.0508 C.ar    1  UNL1       -0.0215
     15 C         139.9896  149.0765  153.8998 C.ar    1  UNL1       -0.0019
     16 C         140.2953  150.5241  153.6522 C.ar    1  UNL1        0.0293
     17 C         139.7240  151.5764  154.5556 C.ar    1  UNL1        0.1401
     18 F         140.0296  153.0239  154.3081 F       1  UNL1       -0.2042
     19 C         138.8469  151.1813  155.7066 C.ar    1  UNL1        0.0293
     20 C         138.5412  149.7337  155.9542 C.ar    1  UNL1       -0.0019
     21 C         139.8927  141.3364  162.6595 C.ar    1  UNL1        0.1411
     22 C         140.6859  142.3051  161.8332 C.ar    1  UNL1        0.0342
     23 C         142.1174  142.5896  162.1794 C.ar    1  UNL1       -0.0001
     24 C         142.7557  141.9055  163.3518 C.ar    1  UNL1        0.0342
     25 C         141.9626  140.9368  164.1780 C.ar    1  UNL1        0.1411
     26 C         140.5311  140.6523  163.8318 C.ar    1  UNL1        0.0679
     27 C         139.7380  139.6836  164.6580 C.ar    1  UNL1        0.0060
     28 C         139.6790  138.2367  164.2667 C.ar    1  UNL1        0.0025
     29 C         138.8858  137.2681  165.0930 C.ar    1  UNL1        0.0296
     30 C         138.1516  137.7463  166.3104 C.ar    1  UNL1        0.1401
     31 F         137.3585  136.7776  167.1366 F       1  UNL1       -0.2042
     32 C         138.2105  139.1932  166.7017 C.ar    1  UNL1        0.0296
     33 C         139.0037  140.1618  165.8755 C.ar    1  UNL1        0.0025
     34 O         138.4612  141.0518  162.3133 O.3     1  UNL1       -0.4754
     35 C         137.7014  143.0107  163.8416 C.3     1  UNL1        0.0512
     36 C         137.3644  141.8729  162.9240 C.3     1  UNL1        0.2055
     37 O         142.6010  140.2527  165.3504 O.3     1  UNL1       -0.4754
     38 C         143.2911  138.9339  165.1646 C.3     1  UNL1        0.2055
     39 C         143.7526  138.1540  166.3599 C.3     1  UNL1        0.0512
@<TRIPOS>BOND
     1    35    36    1
     2    36    34    1
     3    34    21    1
     4    21    22   ar
     5    22    23   ar
     6    23     1    1
     7     1     2    1
     8     2     3    1
     9     3     4    1
    10     4     5    1
    11     5     6    1
    12     6     7    1
    13     5     8    1
    14     8     9    1
    15     9    13    1
    16    13    14    1
    17    14    15   ar
    18    15    16   ar
    19    16    17   ar
    20    17    18    1
    21    17    19   ar
    22    19    20   ar
    23     9    10    1
    24    10    11    2
    25    10    12    1
    26    23    24   ar
    27    24    25   ar
    28    25    37    1
    29    37    38    1
    30    38    39    1
    31    25    26   ar
    32    26    27    1
    33    27    28   ar
    34    28    29   ar
    35    29    30   ar
    36    30    31    1
    37    30    32   ar
    38    32    33   ar
    39    26    21   ar
    40    33    27   ar
    41     7     2    1
    42    20    14   ar
    43    12     5    1
@<TRIPOS>MOLECULE
*****
 39 43 0 0 0
SMALL
GASTEIGER

@<TRIPOS>ATOM
      1 C         142.8862  143.6128  161.3970 C.3     1  UNL1        0.0993
      2 N         142.3289  144.1250  160.1019 N.3     1  UNL1       -0.2687
      3 C         142.8967  143.6451  158.7991 C.3     1  UNL1        0.0760
      4 C         142.3395  144.1573  157.5041 C.3     1  UNL1        0.0575
      5 C         141.2145  145.1494  157.5119 C.3     1  UNL1        0.1391
      6 C         140.6467  145.6293  158.8147 C.3     1  UNL1        0.0575
      7 C         141.2039  145.1171  160.1097 C.3     1  UNL1        0.0760
      8 C         140.0962  146.1381  157.3629 C.3     1  UNL1        0.0516
      9 C         139.8683  146.3626  155.8973 C.3     1  UNL1        0.1068
     10 C         140.8456  145.5127  155.1406 C.2     1  UNL1        0.3167
     11 O         140.9693  145.4276  153.6482 O.2     1  UNL1       -0.2501
     12 O         141.6776  144.7629  156.1385 O.3     1  UNL1       -0.4556
     13 C         138.8430  147.2765  155.2944 C.3     1  UNL1        0.0376
     14 C         139.1798  148.7152  155.0365 C.ar    1  UNL1       -0.0215
     15 C         138.4956  149.7974  155.8180 C.ar    1  UNL1       -0.0019
     16 C         138.8324  151.2362  155.5602 C.ar    1  UNL1        0.0293
     17 C         139.8535  151.5928  154.5209 C.ar    1  UNL1        0.1401
     18 F         140.1904  153.0316  154.2630 F       1  UNL1       -0.2042
     19 C         140.5378  150.5106  153.7393 C.ar    1  UNL1        0.0293
     20 C         140.2009  149.0718  153.9972 C.ar    1  UNL1       -0.0019
     21 C         141.9602  140.9604  164.2002 C.ar    1  UNL1        0.1411
     22 C         142.7450  141.9431  163.3825 C.ar    1  UNL1        0.0342
     23 C         142.1014  142.6301  162.2147 C.ar    1  UNL1       -0.0001
     24 C         140.6731  142.3346  161.8646 C.ar    1  UNL1        0.0342
     25 C         139.8884  141.3520  162.6823 C.ar    1  UNL1        0.1411
     26 C         140.5319  140.6649  163.8501 C.ar    1  UNL1        0.0679
     27 C         139.7472  139.6823  164.6678 C.ar    1  UNL1        0.0060
     28 C         139.7344  138.2313  164.2877 C.ar    1  UNL1        0.0025
     29 C         138.9496  137.2487  165.1054 C.ar    1  UNL1        0.0296
     30 C         138.1778  137.7170  166.3032 C.ar    1  UNL1        0.1401
     31 F         137.3931  136.7344  167.1209 F       1  UNL1       -0.2042
     32 C         138.1906  139.1680  166.6833 C.ar    1  UNL1        0.0296
     33 C         138.9753  140.1506  165.8656 C.ar    1  UNL1        0.0025
     34 O         142.6038  140.2733  165.3679 O.3     1  UNL1       -0.4754
     35 C         143.7527  138.1541  166.3370 C.3     1  UNL1        0.0512
     36 C         143.3730  139.0024  165.1596 C.3     1  UNL1        0.2055
     37 O         138.4601  141.0565  162.3322 O.3     1  UNL1       -0.4754
     38 C         137.3683  141.9732  162.7990 C.3     1  UNL1        0.2055
     39 C         137.6312  142.9491  163.9073 C.3     1  UNL1        0.0512
@<TRIPOS>BOND
     1    35    36    1
     2    36    34    1
     3    34    21    1
     4    21    22   ar
     5    22    23   ar
     6    23     1    1
     7     1     2    1
     8     2     3    1
     9     3     4    1
    10     4     5    1
    11     5     6    1
    12     6     7    1
    13     5     8    1
    14     8     9    1
    15     9    13    1
    16    13    14    1
    17    14    15   ar
    18    15    16   ar
    19    16    17   ar
    20    17    18    1
    21    17    19   ar
    22    19    20   ar
    23     9    10    1
    24    10    11    2
    25    10    12    1
    26    23    24   ar
    27    24    25   ar
    28    25    37    1
    29    37    38    1
    30    38    39    1
    31    25    26   ar
    32    26    27    1
    33    27    28   ar
    34    28    29   ar
    35    29    30   ar
    36    30    31    1
    37    30    32   ar
    38    32    33   ar
    39    26    21   ar
    40    33    27   ar
    41     7     2    1
    42    20    14   ar
    43    12     5    1
@<TRIPOS>MOLECULE
*****
 39 43 0 0 0
SMALL
GASTEIGER

@<TRIPOS>ATOM
      1 C         139.5811  141.3451  159.8860 C.3     1  UNL1        0.0993
      2 N         140.3322  140.3509  159.0508 N.3     1  UNL1       -0.2687
      3 C         141.7526  140.6253  158.6545 C.3     1  UNL1        0.0760
      4 C         142.5035  139.6311  157.8194 C.3     1  UNL1        0.0575
      5 C         141.8341  138.3625  157.3805 C.3     1  UNL1        0.1391
      6 C         140.4137  138.0881  157.7769 C.3     1  UNL1        0.0575
      7 C         139.6628  139.0823  158.6120 C.3     1  UNL1        0.0760
      8 C         141.2995  137.0574  156.8698 C.3     1  UNL1        0.0516
      9 C         142.3866  136.3870  156.0830 C.3     1  UNL1        0.1068
     10 C         143.5932  137.2779  156.1076 C.2     1  UNL1        0.3167
     11 O         144.9099  136.9973  155.4463 O.2     1  UNL1       -0.2501
     12 O         143.2518  138.4988  156.9094 O.3     1  UNL1       -0.4556
     13 C         142.2850  135.0591  155.3929 C.3     1  UNL1        0.0376
     14 C         142.8242  133.8263  156.0557 C.ar    1  UNL1       -0.0215
     15 C         143.9947  133.9272  156.9885 C.ar    1  UNL1       -0.0019
     16 C         144.5339  132.6943  157.6513 C.ar    1  UNL1        0.0293
     17 C         143.9028  131.3606  157.3813 C.ar    1  UNL1        0.1401
     18 F         144.4421  130.1278  158.0441 F       1  UNL1       -0.2042
     19 C         142.7324  131.2597  156.4485 C.ar    1  UNL1        0.0293
     20 C         142.1931  132.4926  155.7857 C.ar    1  UNL1       -0.0019
     21 C         140.8501  140.4391  163.5356 C.ar    1  UNL1        0.1411
     22 C         140.7633  140.4989  162.0392 C.ar    1  UNL1        0.0342
     23 C         139.6679  141.2853  161.3823 C.ar    1  UNL1       -0.0001
     24 C         138.6591  142.0119  162.2218 C.ar    1  UNL1        0.0342
     25 C         138.7459  141.9521  163.7180 C.ar    1  UNL1        0.1411
     26 C         139.8414  141.1657  164.3749 C.ar    1  UNL1        0.0679
     27 C         139.9282  141.1059  165.8712 C.ar    1  UNL1        0.0060
     28 C         140.6675  142.1728  166.6228 C.ar    1  UNL1        0.0025
     29 C         140.7542  142.1130  168.1192 C.ar    1  UNL1        0.0296
     30 C         140.1017  140.9862  168.8638 C.ar    1  UNL1        0.1401
     31 F         140.1885  140.9264  170.3600 F       1  UNL1       -0.2042
     32 C         139.3624  139.9192  168.1121 C.ar    1  UNL1        0.0296
     33 C         139.2756  139.9790  166.6159 C.ar    1  UNL1        0.0025
     34 O         141.9456  139.6527  164.1925 O.3     1  UNL1       -0.4754
     35 C         141.0111  137.2390  164.4185 C.3     1  UNL1        0.0512
     36 C         142.0722  138.1809  163.9318 C.3     1  UNL1        0.2055
     37 O         137.7372  142.6786  164.5574 O.3     1  UNL1       -0.4754
     38 C         137.7217  144.1784  164.5808 C.3     1  UNL1        0.2055
     39 C         138.6975  144.9252  165.4410 C.3     1  UNL1        0.0512
@<TRIPOS>BOND
     1    35    36    1
     2    36    34    1
     3    34    21    1
     4    21    22   ar
     5    22    23   ar
     6    23     1    1
     7     1     2    1
     8     2     3    1
     9     3     4    1
    10     4     5    1
    11     5     6    1
    12     6     7    1
    13     5     8    1
    14     8     9    1
    15     9    13    1
    16    13    14    1
    17    14    15   ar
    18    15    16   ar
    19    16    17   ar
    20    17    18    1
    21    17    19   ar
    22    19    20   ar
    23     9    10    1
    24    10    11    2
    25    10    12    1
    26    23    24   ar
    27    24    25   ar
    28    25    37    1
    29    37    38    1
    30    38    39    1
    31    25    26   ar
    32    26    27    1
    33    27    28   ar
    34    28    29   ar
    35    29    30   ar
    36    30    31    1
    37    30    32   ar
    38    32    33   ar
    39    26    21   ar
    40    33    27   ar
    41     7     2    1
    42    20    14   ar
    43    12     5    1
@<TRIPOS>MOLECULE
*****
 39 43 0 0 0
SMALL
GASTEIGER

@<TRIPOS>ATOM
      1 C         139.7750  141.4159  159.9254 C.3     1  UNL1        0.0993
      2 N         140.4769  140.3843  159.0927 N.3     1  UNL1       -0.2687
      3 C         141.8880  140.6182  158.6413 C.3     1  UNL1        0.0760
      4 C         142.5898  139.5866  157.8087 C.3     1  UNL1        0.0575
      5 C         141.8804  138.3211  157.4275 C.3     1  UNL1        0.1391
      6 C         140.4692  138.0872  157.8789 C.3     1  UNL1        0.0575
      7 C         139.7674  139.1188  158.7115 C.3     1  UNL1        0.0760
      8 C         141.3023  137.0144  156.9709 C.3     1  UNL1        0.0516
      9 C         142.3482  136.3008  156.1664 C.3     1  UNL1        0.1068
     10 C         143.5725  137.1664  156.1259 C.2     1  UNL1        0.3167
     11 O         144.8599  136.8407  155.4284 O.2     1  UNL1       -0.2501
     12 O         143.2834  138.4150  156.9052 O.3     1  UNL1       -0.4556
     13 C         142.1963  134.9574  155.5166 C.3     1  UNL1        0.0376
     14 C         142.8115  133.7445  156.1491 C.ar    1  UNL1       -0.0215
     15 C         142.2651  132.3810  155.8446 C.ar    1  UNL1       -0.0019
     16 C         142.8804  131.1680  156.4772 C.ar    1  UNL1        0.0293
     17 C         144.0420  131.3184  157.4141 C.ar    1  UNL1        0.1401
     18 F         144.6573  130.1054  158.0467 F       1  UNL1       -0.2042
     19 C         144.5884  132.6818  157.7186 C.ar    1  UNL1        0.0293
     20 C         143.9732  133.8948  157.0861 C.ar    1  UNL1       -0.0019
     21 C         138.7751  141.8953  163.7360 C.ar    1  UNL1        0.1411
     22 C         138.7430  141.9910  162.2393 C.ar    1  UNL1        0.0342
     23 C         139.8070  141.3202  161.4220 C.ar    1  UNL1       -0.0001
     24 C         140.9030  140.5538  162.1013 C.ar    1  UNL1        0.0342
     25 C         140.9350  140.4581  163.5979 C.ar    1  UNL1        0.1411
     26 C         139.8710  141.1289  164.4152 C.ar    1  UNL1        0.0679
     27 C         139.9030  141.0332  165.9118 C.ar    1  UNL1        0.0060
     28 C         139.1752  139.9216  166.6080 C.ar    1  UNL1        0.0025
     29 C         139.2072  139.8260  168.1047 C.ar    1  UNL1        0.0296
     30 C         139.9670  140.8419  168.9050 C.ar    1  UNL1        0.1401
     31 F         139.9989  140.7463  170.4016 F       1  UNL1       -0.2042
     32 C         140.6947  141.9535  168.2088 C.ar    1  UNL1        0.0296
     33 C         140.6628  142.0492  166.7122 C.ar    1  UNL1        0.0025
     34 O         137.7111  142.5661  164.5533 O.3     1  UNL1       -0.4754
     35 C         138.9779  144.7922  164.9890 C.3     1  UNL1        0.0512
     36 C         137.7028  144.0596  164.6933 C.3     1  UNL1        0.2055
     37 O         142.0309  139.6917  164.2771 O.3     1  UNL1       -0.4754
     38 C         141.8917  138.2133  164.4898 C.3     1  UNL1        0.2055
     39 C         140.6101  137.5214  164.1313 C.3     1  UNL1        0.0512
@<TRIPOS>BOND
     1    35    36    1
     2    36    34    1
     3    34    21    1
     4    21    22   ar
     5    22    23   ar
     6    23     1    1
     7     1     2    1
     8     2     3    1
     9     3     4    1
    10     4     5    1
    11     5     6    1
    12     6     7    1
    13     5     8    1
    14     8     9    1
    15     9    13    1
    16    13    14    1
    17    14    15   ar
    18    15    16   ar
    19    16    17   ar
    20    17    18    1
    21    17    19   ar
    22    19    20   ar
    23     9    10    1
    24    10    11    2
    25    10    12    1
    26    23    24   ar
    27    24    25   ar
    28    25    37    1
    29    37    38    1
    30    38    39    1
    31    25    26   ar
    32    26    27    1
    33    27    28   ar
    34    28    29   ar
    35    29    30   ar
    36    30    31    1
    37    30    32   ar
    38    32    33   ar
    39    26    21   ar
    40    33    27   ar
    41     7     2    1
    42    20    14   ar
    43    12     5    1
@<TRIPOS>MOLECULE
*****
 39 43 0 0 0
SMALL
GASTEIGER

@<TRIPOS>ATOM
      1 C         139.2913  141.3569  160.5135 C.3     1  UNL1        0.0993
      2 N         140.0604  140.4728  159.5770 N.3     1  UNL1       -0.2687
      3 C         141.5062  140.7562  159.2955 C.3     1  UNL1        0.0760
      4 C         142.2752  139.8721  158.3591 C.3     1  UNL1        0.0575
      5 C         141.5984  138.7047  157.7041 C.3     1  UNL1        0.1391
      6 C         140.1526  138.4213  157.9855 C.3     1  UNL1        0.0575
      7 C         139.3836  139.3053  158.9220 C.3     1  UNL1        0.0760
      8 C         141.0590  137.5073  156.9792 C.3     1  UNL1        0.0516
      9 C         142.1692  136.9254  156.1551 C.3     1  UNL1        0.1068
     10 C         143.3947  137.7630  156.3708 C.2     1  UNL1        0.3167
     11 O         144.7372  137.5402  155.7399 O.2     1  UNL1       -0.2501
     12 O         143.0420  138.8627  157.3280 O.3     1  UNL1       -0.4556
     13 C         142.0710  135.7178  155.2708 C.3     1  UNL1        0.0376
     14 C         142.4091  134.3611  155.8137 C.ar    1  UNL1       -0.0215
     15 C         143.4785  134.2153  156.8555 C.ar    1  UNL1       -0.0019
     16 C         143.8166  132.8585  157.3985 C.ar    1  UNL1        0.0293
     17 C         143.0852  131.6475  156.8999 C.ar    1  UNL1        0.1401
     18 F         143.4232  130.2907  157.4429 F       1  UNL1       -0.2042
     19 C         142.0157  131.7933  155.8581 C.ar    1  UNL1        0.0293
     20 C         141.6777  133.1501  155.3151 C.ar    1  UNL1       -0.0019
     21 C         140.3658  140.6118  164.2606 C.ar    1  UNL1        0.1411
     22 C         139.8790  140.4022  162.8572 C.ar    1  UNL1        0.0342
     23 C         139.7780  141.5664  161.9167 C.ar    1  UNL1       -0.0001
     24 C         140.1638  142.9401  162.3795 C.ar    1  UNL1        0.0342
     25 C         140.6505  143.1496  163.7828 C.ar    1  UNL1        0.1411
     26 C         140.7515  141.9855  164.7233 C.ar    1  UNL1        0.0679
     27 C         141.2382  142.1950  166.1265 C.ar    1  UNL1        0.0060
     28 C         142.6991  142.0648  166.4410 C.ar    1  UNL1        0.0025
     29 C         143.1858  142.2743  167.8443 C.ar    1  UNL1        0.0296
     30 C         142.2117  142.6141  168.9331 C.ar    1  UNL1        0.1401
     31 F         142.6984  142.8236  170.3364 F       1  UNL1       -0.2042
     32 C         140.7508  142.7443  168.6187 C.ar    1  UNL1        0.0296
     33 C         140.2641  142.5348  167.2154 C.ar    1  UNL1        0.0025
     34 O         140.4668  139.4477  165.2011 O.3     1  UNL1       -0.4754
     35 C         138.2472  139.0671  166.4968 C.3     1  UNL1        0.0512
     36 C         139.2573  138.6078  165.4875 C.3     1  UNL1        0.2055
     37 O         141.0363  144.5233  164.2455 O.3     1  UNL1       -0.4754
     38 C         142.1966  145.2305  163.6102 C.3     1  UNL1        0.2055
     39 C         143.5973  144.9095  164.0404 C.3     1  UNL1        0.0512
@<TRIPOS>BOND
     1    35    36    1
     2    36    34    1
     3    34    21    1
     4    21    22   ar
     5    22    23   ar
     6    23     1    1
     7     1     2    1
     8     2     3    1
     9     3     4    1
    10     4     5    1
    11     5     6    1
    12     6     7    1
    13     5     8    1
    14     8     9    1
    15     9    13    1
    16    13    14    1
    17    14    15   ar
    18    15    16   ar
    19    16    17   ar
    20    17    18    1
    21    17    19   ar
    22    19    20   ar
    23     9    10    1
    24    10    11    2
    25    10    12    1
    26    23    24   ar
    27    24    25   ar
    28    25    37    1
    29    37    38    1
    30    38    39    1
    31    25    26   ar
    32    26    27    1
    33    27    28   ar
    34    28    29   ar
    35    29    30   ar
    36    30    31    1
    37    30    32   ar
    38    32    33   ar
    39    26    21   ar
    40    33    27   ar
    41     7     2    1
    42    20    14   ar
    43    12     5    1
@<TRIPOS>MOLECULE
*****
 39 43 0 0 0
SMALL
GASTEIGER

@<TRIPOS>ATOM
      1 C         139.4489  141.4610  160.4407 C.3     1  UNL1        0.0993
      2 N         140.1884  140.5335  159.5225 N.3     1  UNL1       -0.2687
      3 C         141.6167  140.8164  159.1618 C.3     1  UNL1        0.0760
      4 C         142.3561  139.8889  158.2437 C.3     1  UNL1        0.0575
      5 C         141.6673  138.6787  157.6862 C.3     1  UNL1        0.1391
      6 C         140.2390  138.3958  158.0468 C.3     1  UNL1        0.0575
      7 C         139.4996  139.3233  158.9650 C.3     1  UNL1        0.0760
      8 C         141.1130  137.4361  157.0545 C.3     1  UNL1        0.0516
      9 C         142.1941  136.8204  156.2163 C.3     1  UNL1        0.1068
     10 C         143.4164  137.6825  156.3300 C.2     1  UNL1        0.3167
     11 O         144.7330  137.4388  155.6540 O.2     1  UNL1       -0.2501
     12 O         143.0908  138.8309  157.2384 O.3     1  UNL1       -0.4556
     13 C         142.0738  135.5634  155.4067 C.3     1  UNL1        0.0376
     14 C         142.5594  134.2602  155.9685 C.ar    1  UNL1       -0.0215
     15 C         141.8987  132.9760  155.5628 C.ar    1  UNL1       -0.0019
     16 C         142.3843  131.6726  156.1246 C.ar    1  UNL1        0.0293
     17 C         143.5304  131.6535  157.0921 C.ar    1  UNL1        0.1401
     18 F         144.0159  130.3502  157.6540 F       1  UNL1       -0.2042
     19 C         144.1910  132.9377  157.4979 C.ar    1  UNL1        0.0293
     20 C         143.7055  134.2410  156.9360 C.ar    1  UNL1       -0.0019
     21 C         140.7077  143.2130  163.7718 C.ar    1  UNL1        0.1411
     22 C         140.2389  143.0245  162.3594 C.ar    1  UNL1        0.0342
     23 C         139.9177  141.6496  161.8530 C.ar    1  UNL1       -0.0001
     24 C         140.0653  140.4632  162.7590 C.ar    1  UNL1        0.0342
     25 C         140.5340  140.6518  164.1713 C.ar    1  UNL1        0.1411
     26 C         140.8553  142.0267  164.6777 C.ar    1  UNL1        0.0679
     27 C         141.3240  142.2153  166.0900 C.ar    1  UNL1        0.0060
     28 C         142.7855  142.1205  166.4141 C.ar    1  UNL1        0.0025
     29 C         143.2543  142.3091  167.8265 C.ar    1  UNL1        0.0296
     30 C         142.2616  142.5924  168.9147 C.ar    1  UNL1        0.1401
     31 F         142.7303  142.7810  170.3270 F       1  UNL1       -0.2042
     32 C         140.8001  142.6872  168.5906 C.ar    1  UNL1        0.0296
     33 C         140.3313  142.4986  167.1783 C.ar    1  UNL1        0.0025
     34 O         141.0289  144.5880  164.2781 O.3     1  UNL1       -0.4754
     35 C         143.5667  145.0854  164.0283 C.3     1  UNL1        0.0512
     36 C         142.1432  145.3754  163.6548 C.3     1  UNL1        0.2055
     37 O         140.6816  139.4654  165.0772 O.3     1  UNL1       -0.4754
     38 C         139.5185  139.0043  165.9047 C.3     1  UNL1        0.2055
     39 C         138.1751  139.6498  165.7356 C.3     1  UNL1        0.0512
@<TRIPOS>BOND
     1    35    36    1
     2    36    34    1
     3    34    21    1
     4    21    22   ar
     5    22    23   ar
     6    23     1    1
     7     1     2    1
     8     2     3    1
     9     3     4    1
    10     4     5    1
    11     5     6    1
    12     6     7    1
    13     5     8    1
    14     8     9    1
    15     9    13    1
    16    13    14    1
    17    14    15   ar
    18    15    16   ar
    19    16    17   ar
    20    17    18    1
    21    17    19   ar
    22    19    20   ar
    23     9    10    1
    24    10    11    2
    25    10    12    1
    26    23    24   ar
    27    24    25   ar
    28    25    37    1
    29    37    38    1
    30    38    39    1
    31    25    26   ar
    32    26    27    1
    33    27    28   ar
    34    28    29   ar
    35    29    30   ar
    36    30    31    1
    37    30    32   ar
    38    32    33   ar
    39    26    21   ar
    40    33    27   ar
    41     7     2    1
    42    20    14   ar
    43    12     5    1
@<TRIPOS>MOLECULE
*****
 39 43 0 0 0
SMALL
GASTEIGER

@<TRIPOS>ATOM
      1 C         141.2864  139.4093  158.3807 C.3     1  UNL1        0.0993
      2 N         141.4836  138.1386  157.6083 N.3     1  UNL1       -0.2687
      3 C         140.4697  137.7170  156.5865 C.3     1  UNL1        0.0760
      4 C         140.6670  136.4463  155.8142 C.3     1  UNL1        0.0575
      5 C         141.8782  135.5974  156.0637 C.3     1  UNL1        0.1391
      6 C         142.8921  136.0190  157.0855 C.3     1  UNL1        0.0575
      7 C         142.6948  137.2896  157.8578 C.3     1  UNL1        0.0760
      8 C         143.0335  134.6509  156.2036 C.3     1  UNL1        0.0516
      9 C         142.8241  133.5186  155.2422 C.3     1  UNL1        0.1068
     10 C         141.5394  133.7653  154.5081 C.2     1  UNL1        0.3167
     11 O         140.9440  132.8824  153.4519 O.2     1  UNL1       -0.2501
     12 O         140.9548  135.0500  155.0158 O.3     1  UNL1       -0.4556
     13 C         143.7388  132.3456  155.0488 C.3     1  UNL1        0.0376
     14 C         143.7533  131.2321  156.0537 C.ar    1  UNL1       -0.0215
     15 C         142.8603  130.0414  155.8667 C.ar    1  UNL1       -0.0019
     16 C         142.8748  128.9279  156.8716 C.ar    1  UNL1        0.0293
     17 C         143.7821  129.0051  158.0636 C.ar    1  UNL1        0.1401
     18 F         143.7966  127.8916  159.0686 F       1  UNL1       -0.2042
     19 C         144.6751  130.1959  158.2506 C.ar    1  UNL1        0.0293
     20 C         144.6606  131.3094  157.2457 C.ar    1  UNL1       -0.0019
     21 C         141.0744  138.4178  162.2176 C.ar    1  UNL1        0.1411
     22 C         140.8510  138.3992  160.7344 C.ar    1  UNL1        0.0342
     23 C         141.5097  139.4279  159.8638 C.ar    1  UNL1       -0.0001
     24 C         142.3918  140.4751  160.4764 C.ar    1  UNL1        0.0342
     25 C         142.6151  140.4937  161.9596 C.ar    1  UNL1        0.1411
     26 C         141.9564  139.4650  162.8301 C.ar    1  UNL1        0.0679
     27 C         142.1798  139.4835  164.3133 C.ar    1  UNL1        0.0060
     28 C         141.4133  140.4424  165.1753 C.ar    1  UNL1        0.0025
     29 C         141.6367  140.4609  166.6585 C.ar    1  UNL1        0.0296
     30 C         142.6265  139.5206  167.2796 C.ar    1  UNL1        0.1401
     31 F         142.8499  139.5391  168.7627 F       1  UNL1       -0.2042
     32 C         143.3930  138.5617  166.4176 C.ar    1  UNL1        0.0296
     33 C         143.1697  138.5432  164.9345 C.ar    1  UNL1        0.0025
     34 O         140.4157  137.3891  163.0882 O.3     1  UNL1       -0.4754
     35 C         138.8964  137.6774  165.1760 C.3     1  UNL1        0.0512
     36 C         139.0677  137.6644  163.6858 C.3     1  UNL1        0.2055
     37 O         143.4972  141.5409  162.5721 O.3     1  UNL1       -0.4754
     38 C         144.9820  141.3341  162.6242 C.3     1  UNL1        0.2055
     39 C         145.6718  141.1798  163.9472 C.3     1  UNL1        0.0512
@<TRIPOS>BOND
     1    35    36    1
     2    36    34    1
     3    34    21    1
     4    21    22   ar
     5    22    23   ar
     6    23     1    1
     7     1     2    1
     8     2     3    1
     9     3     4    1
    10     4     5    1
    11     5     6    1
    12     6     7    1
    13     5     8    1
    14     8     9    1
    15     9    13    1
    16    13    14    1
    17    14    15   ar
    18    15    16   ar
    19    16    17   ar
    20    17    18    1
    21    17    19   ar
    22    19    20   ar
    23     9    10    1
    24    10    11    2
    25    10    12    1
    26    23    24   ar
    27    24    25   ar
    28    25    37    1
    29    37    38    1
    30    38    39    1
    31    25    26   ar
    32    26    27    1
    33    27    28   ar
    34    28    29   ar
    35    29    30   ar
    36    30    31    1
    37    30    32   ar
    38    32    33   ar
    39    26    21   ar
    40    33    27   ar
    41     7     2    1
    42    20    14   ar
    43    12     5    1
@<TRIPOS>MOLECULE
*****
 39 43 0 0 0
SMALL
GASTEIGER

@<TRIPOS>ATOM
      1 C         141.2567  142.3984  160.1888 C.3     1  UNL1        0.0993
      2 N         141.6458  141.2264  159.3371 N.3     1  UNL1       -0.2687
      3 C         142.9979  141.1864  158.6890 C.3     1  UNL1        0.0760
      4 C         143.3869  140.0145  157.8374 C.3     1  UNL1        0.0575
      5 C         142.4238  138.8826  157.6339 C.3     1  UNL1        0.1391
      6 C         141.0717  138.9227  158.2821 C.3     1  UNL1        0.0575
      7 C         140.6827  140.0946  159.1337 C.3     1  UNL1        0.0760
      8 C         141.5710  137.6838  157.3411 C.3     1  UNL1        0.0516
      9 C         142.3541  136.7640  156.4517 C.3     1  UNL1        0.1068
     10 C         143.6908  137.3944  156.1950 C.2     1  UNL1        0.3167
     11 O         144.7912  136.8168  155.3551 O.2     1  UNL1       -0.2501
     12 O         143.7339  138.7037  156.9256 O.3     1  UNL1       -0.4556
     13 C         141.8831  135.4454  155.9137 C.3     1  UNL1        0.0376
     14 C         142.5608  134.1767  156.3390 C.ar    1  UNL1       -0.0215
     15 C         142.1068  132.8604  155.7808 C.ar    1  UNL1       -0.0019
     16 C         142.7845  131.5916  156.2061 C.ar    1  UNL1        0.0293
     17 C         143.9162  131.6390  157.1895 C.ar    1  UNL1        0.1401
     18 F         144.5939  130.3702  157.6148 F       1  UNL1       -0.2042
     19 C         144.3702  132.9553  157.7476 C.ar    1  UNL1        0.0293
     20 C         143.6925  134.2241  157.3223 C.ar    1  UNL1       -0.0019
     21 C         141.9911  141.5982  164.0059 C.ar    1  UNL1        0.1411
     22 C         142.1950  141.7779  162.5307 C.ar    1  UNL1        0.0342
     23 C         141.0529  142.2187  161.6640 C.ar    1  UNL1       -0.0001
     24 C         139.7069  142.4798  162.2724 C.ar    1  UNL1        0.0342
     25 C         139.5031  142.3001  163.7476 C.ar    1  UNL1        0.1411
     26 C         140.6452  141.8593  164.6143 C.ar    1  UNL1        0.0679
     27 C         140.4414  141.6796  166.0895 C.ar    1  UNL1        0.0060
     28 C         139.8608  140.4007  166.6161 C.ar    1  UNL1        0.0025
     29 C         139.6570  140.2210  168.0914 C.ar    1  UNL1        0.0296
     30 C         140.0338  141.3202  169.0399 C.ar    1  UNL1        0.1401
     31 F         139.8300  141.1405  170.5150 F       1  UNL1       -0.2042
     32 C         140.6144  142.5991  168.5133 C.ar    1  UNL1        0.0296
     33 C         140.8182  142.7788  167.0381 C.ar    1  UNL1        0.0025
     34 O         143.1333  141.1573  164.8727 O.3     1  UNL1       -0.4754
     35 C         144.4567  143.3404  165.3553 C.3     1  UNL1        0.0512
     36 C         144.4224  141.9243  164.8620 C.3     1  UNL1        0.2055
     37 O         138.1571  142.5612  164.3560 O.3     1  UNL1       -0.4754
     38 C         137.6821  143.9709  164.5493 C.3     1  UNL1        0.2055
     39 C         138.4672  144.9154  165.4104 C.3     1  UNL1        0.0512
@<TRIPOS>BOND
     1    35    36    1
     2    36    34    1
     3    34    21    1
     4    21    22   ar
     5    22    23   ar
     6    23     1    1
     7     1     2    1
     8     2     3    1
     9     3     4    1
    10     4     5    1
    11     5     6    1
    12     6     7    1
    13     5     8    1
    14     8     9    1
    15     9    13    1
    16    13    14    1
    17    14    15   ar
    18    15    16   ar
    19    16    17   ar
    20    17    18    1
    21    17    19   ar
    22    19    20   ar
    23     9    10    1
    24    10    11    2
    25    10    12    1
    26    23    24   ar
    27    24    25   ar
    28    25    37    1
    29    37    38    1
    30    38    39    1
    31    25    26   ar
    32    26    27    1
    33    27    28   ar
    34    28    29   ar
    35    29    30   ar
    36    30    31    1
    37    30    32   ar
    38    32    33   ar
    39    26    21   ar
    40    33    27   ar
    41     7     2    1
    42    20    14   ar
    43    12     5    1
@<TRIPOS>MOLECULE
*****
 39 43 0 0 0
SMALL
GASTEIGER

@<TRIPOS>ATOM
      1 C         138.9358  142.6575  160.8479 C.3     1  UNL1        0.0993
      2 N         138.8417  141.9318  162.1573 N.3     1  UNL1       -0.2687
      3 C         138.0585  140.6561  162.2532 C.3     1  UNL1        0.0760
      4 C         137.9644  139.9305  163.5627 C.3     1  UNL1        0.0575
      5 C         138.6535  140.4806  164.7762 C.3     1  UNL1        0.1391
      6 C         139.4366  141.7563  164.6803 C.3     1  UNL1        0.0575
      7 C         139.5307  142.4819  163.3709 C.3     1  UNL1        0.0760
      8 C         139.2858  140.9069  166.0679 C.3     1  UNL1        0.0516
      9 C         138.9337  139.8910  167.1139 C.3     1  UNL1        0.1068
     10 C         138.0837  138.8368  166.4686 C.2     1  UNL1        0.3167
     11 O         137.5080  137.6302  167.1486 O.2     1  UNL1       -0.2501
     12 O         137.9105  139.2012  165.0239 O.3     1  UNL1       -0.4556
     13 C         139.3571  139.9236  168.5525 C.3     1  UNL1        0.0376
     14 C         140.6150  140.6384  168.9480 C.ar    1  UNL1       -0.0215
     15 C         141.8633  139.8573  169.2339 C.ar    1  UNL1       -0.0019
     16 C         143.1213  140.5723  169.6294 C.ar    1  UNL1        0.0293
     17 C         143.1310  142.0682  169.7391 C.ar    1  UNL1        0.1401
     18 F         144.3889  142.7831  170.1347 F       1  UNL1       -0.2042
     19 C         141.8826  142.8493  169.4533 C.ar    1  UNL1        0.0293
     20 C         140.6246  142.1344  169.0577 C.ar    1  UNL1       -0.0019
     21 C         142.1610  141.2656  159.0011 C.ar    1  UNL1        0.1411
     22 C         140.8863  141.3054  159.7908 C.ar    1  UNL1        0.0342
     23 C         140.2104  142.6176  160.0582 C.ar    1  UNL1       -0.0001
     24 C         140.8093  143.8899  159.5360 C.ar    1  UNL1        0.0342
     25 C         142.0840  143.8500  158.7463 C.ar    1  UNL1        0.1411
     26 C         142.7598  142.5378  158.4789 C.ar    1  UNL1        0.0679
     27 C         144.0345  142.4979  157.6893 C.ar    1  UNL1        0.0060
     28 C         145.3474  142.7447  158.3714 C.ar    1  UNL1        0.0025
     29 C         146.6221  142.7048  157.5817 C.ar    1  UNL1        0.0296
     30 C         146.5839  142.4181  156.1099 C.ar    1  UNL1        0.1401
     31 F         147.8586  142.3782  155.3202 F       1  UNL1       -0.2042
     32 C         145.2710  142.1713  155.4277 C.ar    1  UNL1        0.0296
     33 C         143.9963  142.2112  156.2173 C.ar    1  UNL1        0.0025
     34 O         142.8369  139.9534  158.7337 O.3     1  UNL1       -0.4754
     35 C         144.0459  139.8255  161.0298 C.3     1  UNL1        0.0512
     36 C         143.3776  139.1422  159.8738 C.3     1  UNL1        0.2055
     37 O         142.6828  145.1222  158.2241 O.3     1  UNL1       -0.4754
     38 C         142.0119  145.8632  157.1056 C.3     1  UNL1        0.2055
     39 C         141.8015  145.1916  155.7810 C.3     1  UNL1        0.0512
@<TRIPOS>BOND
     1    35    36    1
     2    36    34    1
     3    34    21    1
     4    21    22   ar
     5    22    23   ar
     6    23     1    1
     7     1     2    1
     8     2     3    1
     9     3     4    1
    10     4     5    1
    11     5     6    1
    12     6     7    1
    13     5     8    1
    14     8     9    1
    15     9    13    1
    16    13    14    1
    17    14    15   ar
    18    15    16   ar
    19    16    17   ar
    20    17    18    1
    21    17    19   ar
    22    19    20   ar
    23     9    10    1
    24    10    11    2
    25    10    12    1
    26    23    24   ar
    27    24    25   ar
    28    25    37    1
    29    37    38    1
    30    38    39    1
    31    25    26   ar
    32    26    27    1
    33    27    28   ar
    34    28    29   ar
    35    29    30   ar
    36    30    31    1
    37    30    32   ar
    38    32    33   ar
    39    26    21   ar
    40    33    27   ar
    41     7     2    1
    42    20    14   ar
    43    12     5    1
