@<TRIPOS>MOLECULE
*****
 28 31 0 0 0
SMALL
GASTEIGER

@<TRIPOS>ATOM
      1 C         139.0951  138.2468  162.1930 C.3     1  UNL1        0.0491
      2 C         139.6910  138.9680  163.3655 C.3     1  UNL1        0.1855
      3 C         138.7794  138.6170  164.5039 C.3     1  UNL1        0.1335
      4 N         138.3618  138.6916  165.9426 N.am    1  UNL1       -0.2975
      5 C         138.5339  139.1747  167.3522 C.2     1  UNL1        0.2505
      6 O         137.3842  138.5524  168.0879 O.2     1  UNL1       -0.2700
      7 C         139.2562  139.9558  168.4097 C.ar    1  UNL1        0.1099
      8 C         138.6678  139.8943  169.7881 C.ar    1  UNL1        0.1281
      9 N         139.5224  140.7299  170.6945 N.ar    1  UNL1       -0.1619
     10 N         140.6389  141.3077  169.8763 N.ar    1  UNL1       -0.2104
     11 C         141.7842  142.2077  170.2346 C.ar    1  UNL1        0.1049
     12 C         142.7649  142.6292  169.1809 C.ar    1  UNL1        0.0548
     13 C         142.6004  142.1507  167.7688 C.ar    1  UNL1        0.1319
     14 N         141.4551  141.2508  167.4104 N.ar    1  UNL1       -0.2118
     15 C         140.4744  140.8292  168.4642 C.ar    1  UNL1        0.1710
     16 N         143.3716  142.3500  166.4250 N.pl3   1  UNL1       -0.3159
     17 C         143.4981  142.0629  164.9583 C.3     1  UNL1        0.0960
     18 C         144.7245  142.8229  164.5480 C.3     1  UNL1        0.0262
     19 C         143.0374  141.4118  163.6878 C.ar    1  UNL1        0.0317
     20 C         144.2046  142.0599  163.0039 C.ar    1  UNL1        0.0300
     21 C         144.4298  141.8423  161.5369 C.ar    1  UNL1        0.1401
     22 F         145.5971  142.4903  160.8530 F       1  UNL1       -0.2042
     23 C         143.4878  140.9767  160.7539 C.ar    1  UNL1        0.0327
     24 C         142.3206  140.3287  161.4377 C.ar    1  UNL1        0.0389
     25 C         142.0954  140.5463  162.9047 C.ar    1  UNL1        0.1361
     26 O         140.8877  139.6643  162.7884 O.3     1  UNL1       -0.4777
     27 H         137.5532  138.1314  165.9826 H       1  UNL1        0.1499
     28 H         144.1290  142.9402  166.6426 H       1  UNL1        0.1484
@<TRIPOS>BOND
     1     2     1    1
     2     2     3    1
     3     3     4    1
     4     4     5   am
     5     5     6    2
     6     5     7    1
     7     7     8   ar
     8     8     9   ar
     9     9    10   ar
    10    10    11   ar
    11    11    12   ar
    12    12    13   ar
    13    13    14   ar
    14    14    15   ar
    15    13    16    1
    16    16    17    1
    17    17    18    1
    18    17    19    1
    19    19    20   ar
    20    20    21   ar
    21    21    22    1
    22    21    23   ar
    23    23    24   ar
    24    24    25   ar
    25    25    26    1
    26    26     2    1
    27    15     7   ar
    28    25    19   ar
    29    15    10   ar
    30     4    27    1
    31    16    28    1
@<TRIPOS>MOLECULE
*****
 28 31 0 0 0
SMALL
GASTEIGER

@<TRIPOS>ATOM
      1 C         137.3673  138.0161  166.9638 C.3     1  UNL1        0.0491
      2 C         138.5980  138.6279  166.3629 C.3     1  UNL1        0.1855
      3 C         138.5774  138.1522  164.9405 C.3     1  UNL1        0.1335
      4 N         139.1505  138.0782  163.5563 N.am    1  UNL1       -0.2975
      5 C         140.1861  138.4230  162.5273 C.2     1  UNL1        0.2505
      6 O         139.7156  137.7131  161.2925 O.2     1  UNL1       -0.2700
      7 C         141.4470  139.1075  162.0894 C.ar    1  UNL1        0.1099
      8 C         141.8424  138.9015  160.6573 C.ar    1  UNL1        0.1281
      9 N         143.1152  139.6572  160.4145 N.ar    1  UNL1       -0.1619
     10 N         143.5063  140.3304  161.6967 N.ar    1  UNL1       -0.2104
     11 C         144.6680  141.2088  162.0553 C.ar    1  UNL1        0.1049
     12 C         144.7988  141.7475  163.4491 C.ar    1  UNL1        0.0548
     13 C         143.7678  141.4077  164.4843 C.ar    1  UNL1        0.1319
     14 N         142.6060  140.5293  164.1256 N.ar    1  UNL1       -0.2118
     15 C         142.4753  139.9907  162.7319 C.ar    1  UNL1        0.1710
     16 N         143.5434  141.7505  165.9918 N.pl3   1  UNL1       -0.3159
     17 C         142.7150  141.6111  167.2344 C.3     1  UNL1        0.0960
     18 C         143.4549  142.4272  168.2526 C.3     1  UNL1        0.0262
     19 C         141.5324  141.0810  167.9897 C.ar    1  UNL1        0.0317
     20 C         142.0502  141.8116  169.1931 C.ar    1  UNL1        0.0300
     21 C         141.3022  141.7430  170.4915 C.ar    1  UNL1        0.1401
     22 F         141.8200  142.4736  171.6949 F       1  UNL1       -0.2042
     23 C         140.0364  140.9438  170.5865 C.ar    1  UNL1        0.0327
     24 C         139.5187  140.2132  169.3831 C.ar    1  UNL1        0.0389
     25 C         140.2667  140.2818  168.0847 C.ar    1  UNL1        0.1361
     26 O         139.2076  139.3965  167.4976 O.3     1  UNL1       -0.4777
     27 H         138.5163  137.5040  163.0691 H       1  UNL1        0.1499
     28 H         144.2994  142.3284  166.2444 H       1  UNL1        0.1484
@<TRIPOS>BOND
     1     2     1    1
     2     2     3    1
     3     3     4    1
     4     4     5   am
     5     5     6    2
     6     5     7    1
     7     7     8   ar
     8     8     9   ar
     9     9    10   ar
    10    10    11   ar
    11    11    12   ar
    12    12    13   ar
    13    13    14   ar
    14    14    15   ar
    15    13    16    1
    16    16    17    1
    17    17    18    1
    18    17    19    1
    19    19    20   ar
    20    20    21   ar
    21    21    22    1
    22    21    23   ar
    23    23    24   ar
    24    24    25   ar
    25    25    26    1
    26    26     2    1
    27    15     7   ar
    28    25    19   ar
    29    15    10   ar
    30     4    27    1
    31    16    28    1
@<TRIPOS>MOLECULE
*****
 28 31 0 0 0
SMALL
GASTEIGER

@<TRIPOS>ATOM
      1 C         138.4928  145.0340  165.8221 C.3     1  UNL1        0.0491
      2 C         139.1470  143.8651  165.1470 C.3     1  UNL1        0.1855
      3 C         138.6767  143.9620  163.7259 C.3     1  UNL1        0.1335
      4 N         138.6273  143.4773  162.3073 N.am    1  UNL1       -0.2975
      5 C         139.0100  142.5219  161.2161 C.2     1  UNL1        0.2505
      6 O         138.2903  143.0478  160.0096 O.2     1  UNL1       -0.2700
      7 C         139.7372  141.3146  160.7023 C.ar    1  UNL1        0.1099
      8 C         139.5501  141.0059  159.2464 C.ar    1  UNL1        0.1281
      9 N         140.3480  139.7766  158.9270 N.ar    1  UNL1       -0.1619
     10 N         141.0282  139.3255  160.1855 N.ar    1  UNL1       -0.2104
     11 C         141.9426  138.1720  160.4742 C.ar    1  UNL1        0.1049
     12 C         142.4794  137.9692  161.8600 C.ar    1  UNL1        0.0548
     13 C         142.1019  138.9198  162.9572 C.ar    1  UNL1        0.1319
     14 N         141.1875  140.0732  162.6686 N.ar    1  UNL1       -0.2118
     15 C         140.6507  140.2761  161.2827 C.ar    1  UNL1        0.1710
     16 N         142.4309  139.0574  164.4781 N.pl3   1  UNL1       -0.3159
     17 C         142.2593  139.7989  165.7706 C.3     1  UNL1        0.0960
     18 C         143.0948  139.0217  166.7441 C.3     1  UNL1        0.0262
     19 C         141.6877  140.9126  166.5971 C.ar    1  UNL1        0.0317
     20 C         142.4298  140.3422  167.7692 C.ar    1  UNL1        0.0300
     21 C         142.3315  141.0023  169.1126 C.ar    1  UNL1        0.1401
     22 F         143.0736  140.4319  170.2847 F       1  UNL1       -0.2042
     23 C         141.4909  142.2328  169.2838 C.ar    1  UNL1        0.0327
     24 C         140.7488  142.8032  168.1116 C.ar    1  UNL1        0.0389
     25 C         140.8473  142.1431  166.7683 C.ar    1  UNL1        0.1361
     26 O         139.9303  143.2087  166.2450 O.3     1  UNL1       -0.4777
     27 H         138.0347  144.1226  161.8584 H       1  UNL1        0.1499
     28 H         143.0321  138.3057  164.6852 H       1  UNL1        0.1484
@<TRIPOS>BOND
     1     2     1    1
     2     2     3    1
     3     3     4    1
     4     4     5   am
     5     5     6    2
     6     5     7    1
     7     7     8   ar
     8     8     9   ar
     9     9    10   ar
    10    10    11   ar
    11    11    12   ar
    12    12    13   ar
    13    13    14   ar
    14    14    15   ar
    15    13    16    1
    16    16    17    1
    17    17    18    1
    18    17    19    1
    19    19    20   ar
    20    20    21   ar
    21    21    22    1
    22    21    23   ar
    23    23    24   ar
    24    24    25   ar
    25    25    26    1
    26    26     2    1
    27    15     7   ar
    28    25    19   ar
    29    15    10   ar
    30     4    27    1
    31    16    28    1
@<TRIPOS>MOLECULE
*****
 28 31 0 0 0
SMALL
GASTEIGER

@<TRIPOS>ATOM
      1 C         138.2525  144.8940  165.7670 C.3     1  UNL1        0.0491
      2 C         139.2854  144.3551  164.8221 C.3     1  UNL1        0.1855
      3 C         139.0794  145.1558  163.5705 C.3     1  UNL1        0.1335
      4 N         139.4149  145.5152  162.1535 N.am    1  UNL1       -0.2975
      5 C         140.2151  145.3509  160.8954 C.2     1  UNL1        0.2505
      6 O         139.6274  146.3664  159.9608 O.2     1  UNL1       -0.2700
      7 C         141.2967  144.7004  160.0846 C.ar    1  UNL1        0.1099
      8 C         141.4654  145.2121  158.6847 C.ar    1  UNL1        0.1281
      9 N         142.5834  144.4454  158.0426 N.ar    1  UNL1       -0.1619
     10 N         143.1056  143.4599  159.0457 N.ar    1  UNL1       -0.2104
     11 C         144.2025  142.4394  158.9729 C.ar    1  UNL1        0.1049
     12 C         144.5042  141.5766  160.1622 C.ar    1  UNL1        0.0548
     13 C         143.7090  141.7342  161.4242 C.ar    1  UNL1        0.1319
     14 N         142.6121  142.7547  161.4970 N.ar    1  UNL1       -0.2118
     15 C         142.3104  143.6176  160.3077 C.ar    1  UNL1        0.1710
     16 N         143.7048  141.0598  162.8333 N.pl3   1  UNL1       -0.3159
     17 C         143.1200  140.9594  164.2108 C.3     1  UNL1        0.0960
     18 C         143.9225  139.8730  164.8633 C.3     1  UNL1        0.0262
     19 C         142.1509  141.3790  165.2762 C.ar    1  UNL1        0.0317
     20 C         142.7772  140.3474  166.1671 C.ar    1  UNL1        0.0300
     21 C         142.2724  140.1592  167.5670 C.ar    1  UNL1        0.1401
     22 F         142.8987  139.1276  168.4578 F       1  UNL1       -0.2042
     23 C         141.1412  141.0026  168.0760 C.ar    1  UNL1        0.0327
     24 C         140.5149  142.0342  167.1852 C.ar    1  UNL1        0.0389
     25 C         141.0198  142.2223  165.7853 C.ar    1  UNL1        0.1361
     26 O         139.9856  143.2964  165.6214 O.3     1  UNL1       -0.4777
     27 H         138.7778  146.2333  161.9353 H       1  UNL1        0.1499
     28 H         144.4211  140.3851  162.8030 H       1  UNL1        0.1484
@<TRIPOS>BOND
     1     2     1    1
     2     2     3    1
     3     3     4    1
     4     4     5   am
     5     5     6    2
     6     5     7    1
     7     7     8   ar
     8     8     9   ar
     9     9    10   ar
    10    10    11   ar
    11    11    12   ar
    12    12    13   ar
    13    13    14   ar
    14    14    15   ar
    15    13    16    1
    16    16    17    1
    17    17    18    1
    18    17    19    1
    19    19    20   ar
    20    20    21   ar
    21    21    22    1
    22    21    23   ar
    23    23    24   ar
    24    24    25   ar
    25    25    26    1
    26    26     2    1
    27    15     7   ar
    28    25    19   ar
    29    15    10   ar
    30     4    27    1
    31    16    28    1
@<TRIPOS>MOLECULE
*****
 28 31 0 0 0
SMALL
GASTEIGER

@<TRIPOS>ATOM
      1 C         144.0735  140.2447  161.4886 C.3     1  UNL1        0.0491
      2 C         143.3982  140.5674  162.7886 C.3     1  UNL1        0.1855
      3 C         143.9102  139.5172  163.7293 C.3     1  UNL1        0.1335
      4 N         143.9817  138.8621  165.0768 N.am    1  UNL1       -0.2975
      5 C         143.5964  138.7520  166.5223 C.2     1  UNL1        0.2505
      6 O         144.3664  137.5604  167.0094 O.2     1  UNL1       -0.2700
      7 C         142.8425  139.2123  167.7346 C.ar    1  UNL1        0.1099
      8 C         143.0585  138.4123  168.9849 C.ar    1  UNL1        0.1281
      9 N         142.2278  139.0223  170.0748 N.ar    1  UNL1       -0.1619
     10 N         141.4984  140.1992  169.4981 N.ar    1  UNL1       -0.2104
     11 C         140.5373  141.1792  170.1031 C.ar    1  UNL1        0.1049
     12 C         139.9561  142.2766  169.2617 C.ar    1  UNL1        0.0548
     13 C         140.3360  142.3940  167.8154 C.ar    1  UNL1        0.1319
     14 N         141.2970  141.4141  167.2104 N.ar    1  UNL1       -0.2118
     15 C         141.8782  140.3167  168.0518 C.ar    1  UNL1        0.1710
     16 N         139.9705  143.3548  166.6391 N.pl3   1  UNL1       -0.3159
     17 C         140.1321  143.7488  165.2009 C.3     1  UNL1        0.0960
     18 C         139.2440  144.9489  165.0555 C.3     1  UNL1        0.0262
     19 C         140.7188  143.5684  163.8322 C.ar    1  UNL1        0.0317
     20 C         139.9258  144.7663  163.4006 C.ar    1  UNL1        0.0300
     21 C         140.0100  145.2508  161.9835 C.ar    1  UNL1        0.1401
     22 F         139.2170  146.4486  161.5519 F       1  UNL1       -0.2042
     23 C         140.8874  144.5373  160.9980 C.ar    1  UNL1        0.0327
     24 C         141.6804  143.3395  161.4296 C.ar    1  UNL1        0.0389
     25 C         141.5961  142.8551  162.8467 C.ar    1  UNL1        0.1361
     26 O         142.5631  141.7720  162.4700 O.3     1  UNL1       -0.4777
     27 H         144.6082  138.1146  164.9423 H       1  UNL1        0.1499
     28 H         139.3384  144.0065  167.0199 H       1  UNL1        0.1484
@<TRIPOS>BOND
     1     2     1    1
     2     2     3    1
     3     3     4    1
     4     4     5   am
     5     5     6    2
     6     5     7    1
     7     7     8   ar
     8     8     9   ar
     9     9    10   ar
    10    10    11   ar
    11    11    12   ar
    12    12    13   ar
    13    13    14   ar
    14    14    15   ar
    15    13    16    1
    16    16    17    1
    17    17    18    1
    18    17    19    1
    19    19    20   ar
    20    20    21   ar
    21    21    22    1
    22    21    23   ar
    23    23    24   ar
    24    24    25   ar
    25    25    26    1
    26    26     2    1
    27    15     7   ar
    28    25    19   ar
    29    15    10   ar
    30     4    27    1
    31    16    28    1
@<TRIPOS>MOLECULE
*****
 28 31 0 0 0
SMALL
GASTEIGER

@<TRIPOS>ATOM
      1 C         144.5505  143.6323  165.8161 C.3     1  UNL1        0.0491
      2 C         143.5840  142.7003  165.1473 C.3     1  UNL1        0.1855
      3 C         144.0369  142.6788  163.7175 C.3     1  UNL1        0.1335
      4 N         143.9235  142.2162  162.2952 N.am    1  UNL1       -0.2975
      5 C         143.2697  141.4184  161.2061 C.2     1  UNL1        0.2505
      6 O         144.0858  141.7369  159.9884 O.2     1  UNL1       -0.2700
      7 C         142.2253  140.4681  160.6998 C.ar    1  UNL1        0.1099
      8 C         142.2925  140.1366  159.2385 C.ar    1  UNL1        0.1281
      9 N         141.1774  139.1825  158.9279 N.ar    1  UNL1       -0.1619
     10 N         140.4211  138.9244  160.1973 N.ar    1  UNL1       -0.2104
     11 C         139.2265  138.0685  160.4975 C.ar    1  UNL1        0.1049
     12 C         138.6794  138.0072  161.8928 C.ar    1  UNL1        0.0548
     13 C         139.3270  138.8018  162.9879 C.ar    1  UNL1        0.1319
     14 N         140.5217  139.6577  162.6877 N.ar    1  UNL1       -0.2118
     15 C         141.0687  139.7190  161.2924 C.ar    1  UNL1        0.1710
     16 N         139.0770  139.0078  164.5161 N.pl3   1  UNL1       -0.3159
     17 C         139.4720  139.6569  165.8094 C.3     1  UNL1        0.0960
     18 C         138.4704  139.1322  166.7951 C.3     1  UNL1        0.0262
     19 C         140.3466  140.5571  166.6309 C.ar    1  UNL1        0.0317
     20 C         139.4960  140.2026  167.8144 C.ar    1  UNL1        0.0300
     21 C         139.7989  140.7932  169.1596 C.ar    1  UNL1        0.1401
     22 F         138.9483  140.4388  170.3432 F       1  UNL1       -0.2042
     23 C         140.9525  141.7383  169.3212 C.ar    1  UNL1        0.0327
     24 C         141.8031  142.0928  168.1376 C.ar    1  UNL1        0.0389
     25 C         141.5001  141.5021  166.7925 C.ar    1  UNL1        0.1361
     26 O         142.6685  142.2756  166.2571 O.3     1  UNL1       -0.4777
     27 H         144.6645  142.6759  161.8381 H       1  UNL1        0.1499
     28 H         138.2937  138.4514  164.7308 H       1  UNL1        0.1484
@<TRIPOS>BOND
     1     2     1    1
     2     2     3    1
     3     3     4    1
     4     4     5   am
     5     5     6    2
     6     5     7    1
     7     7     8   ar
     8     8     9   ar
     9     9    10   ar
    10    10    11   ar
    11    11    12   ar
    12    12    13   ar
    13    13    14   ar
    14    14    15   ar
    15    13    16    1
    16    16    17    1
    17    17    18    1
    18    17    19    1
    19    19    20   ar
    20    20    21   ar
    21    21    22    1
    22    21    23   ar
    23    23    24   ar
    24    24    25   ar
    25    25    26    1
    26    26     2    1
    27    15     7   ar
    28    25    19   ar
    29    15    10   ar
    30     4    27    1
    31    16    28    1
@<TRIPOS>MOLECULE
*****
 28 31 0 0 0
SMALL
GASTEIGER

@<TRIPOS>ATOM
      1 C         142.8986  143.5707  164.2838 C.3     1  UNL1        0.0491
      2 C         142.0108  143.1529  163.1493 C.3     1  UNL1        0.1855
      3 C         142.2650  144.1885  162.0944 C.3     1  UNL1        0.1335
      4 N         142.0361  144.7870  160.7381 N.am    1  UNL1       -0.2975
      5 C         141.3765  144.8111  159.3911 C.2     1  UNL1        0.2505
      6 O         141.9606  146.0226  158.7269 O.2     1  UNL1       -0.2700
      7 C         140.4372  144.2553  158.3621 C.ar    1  UNL1        0.1099
      8 C         140.3589  145.0108  157.0686 C.ar    1  UNL1        0.1281
      9 N         139.3775  144.3067  156.1792 N.ar    1  UNL1       -0.1619
     10 N         138.8491  143.1161  156.9230 N.ar    1  UNL1       -0.2104
     11 C         137.8563  142.0568  156.5462 C.ar    1  UNL1        0.1049
     12 C         137.5184  140.9657  157.5184 C.ar    1  UNL1        0.0548
     13 C         138.1734  140.9339  158.8675 C.ar    1  UNL1        0.1319
     14 N         139.1662  141.9932  159.2444 N.ar    1  UNL1       -0.2118
     15 C         139.5041  143.0843  158.2721 C.ar    1  UNL1        0.1710
     16 N         138.1016  140.0062  160.1223 N.pl3   1  UNL1       -0.3159
     17 C         138.5592  139.6856  161.5143 C.3     1  UNL1        0.0960
     18 C         137.7949  138.4438  161.8664 C.3     1  UNL1        0.0262
     19 C         139.3826  139.9594  162.7379 C.ar    1  UNL1        0.0317
     20 C         138.7657  138.7379  163.3523 C.ar    1  UNL1        0.0300
     21 C         139.1494  138.3218  164.7414 C.ar    1  UNL1        0.1401
     22 F         138.5325  137.1003  165.3558 F       1  UNL1       -0.2042
     23 C         140.1500  139.1272  165.5161 C.ar    1  UNL1        0.0327
     24 C         140.7668  140.3487  164.9017 C.ar    1  UNL1        0.0389
     25 C         140.3831  140.7647  163.5126 C.ar    1  UNL1        0.1361
     26 O         141.3316  141.9173  163.6611 O.3     1  UNL1       -0.4777
     27 H         142.6268  145.5745  160.7254 H       1  UNL1        0.1499
     28 H         137.4523  139.3031  159.8915 H       1  UNL1        0.1484
@<TRIPOS>BOND
     1     2     1    1
     2     2     3    1
     3     3     4    1
     4     4     5   am
     5     5     6    2
     6     5     7    1
     7     7     8   ar
     8     8     9   ar
     9     9    10   ar
    10    10    11   ar
    11    11    12   ar
    12    12    13   ar
    13    13    14   ar
    14    14    15   ar
    15    13    16    1
    16    16    17    1
    17    17    18    1
    18    17    19    1
    19    19    20   ar
    20    20    21   ar
    21    21    22    1
    22    21    23   ar
    23    23    24   ar
    24    24    25   ar
    25    25    26    1
    26    26     2    1
    27    15     7   ar
    28    25    19   ar
    29    15    10   ar
    30     4    27    1
    31    16    28    1
@<TRIPOS>MOLECULE
*****
 28 31 0 0 0
SMALL
GASTEIGER

@<TRIPOS>ATOM
      1 C         145.0111  142.2718  162.5205 C.3     1  UNL1        0.0491
      2 C         143.8334  141.6931  163.2473 C.3     1  UNL1        0.1855
      3 C         144.0220  142.1554  164.6618 C.3     1  UNL1        0.1335
      4 N         143.6037  142.2348  166.1000 N.am    1  UNL1       -0.2975
      5 C         142.6744  141.9131  167.2327 C.2     1  UNL1        0.2505
      6 O         143.2973  142.5971  168.4135 O.2     1  UNL1       -0.2700
      7 C         141.4469  141.2640  167.8002 C.ar    1  UNL1        0.1099
      8 C         141.2145  141.4695  169.2678 C.ar    1  UNL1        0.1281
      9 N         139.9519  140.7514  169.6421 N.ar    1  UNL1       -0.1619
     10 N         139.4040  140.1020  168.4059 N.ar    1  UNL1       -0.2104
     11 C         138.1832  139.2631  168.1698 C.ar    1  UNL1        0.1049
     12 C         137.8863  138.7411  166.7953 C.ar    1  UNL1        0.0548
     13 C         138.8102  139.0580  165.6569 C.ar    1  UNL1        0.1319
     14 N         140.0311  139.8968  165.8931 N.ar    1  UNL1       -0.2118
     15 C         140.3280  140.4189  167.2676 C.ar    1  UNL1        0.1710
     16 N         138.8601  138.7218  164.1322 N.pl3   1  UNL1       -0.3159
     17 C         139.5540  138.8466  162.8083 C.3     1  UNL1        0.0960
     18 C         138.6835  138.0628  161.8713 C.3     1  UNL1        0.0262
     19 C         140.6647  139.3465  161.9328 C.ar    1  UNL1        0.0317
     20 C         139.9977  138.6429  160.7883 C.ar    1  UNL1        0.0300
     21 C         140.6034  138.6998  159.4172 C.ar    1  UNL1        0.1401
     22 F         139.9363  137.9963  158.2727 F       1  UNL1       -0.2042
     23 C         141.8763  139.4603  159.1907 C.ar    1  UNL1        0.0327
     24 C         142.5434  140.1639  160.3353 C.ar    1  UNL1        0.0389
     25 C         141.9376  140.1070  161.7063 C.ar    1  UNL1        0.1361
     26 O         143.0812  140.9539  162.1807 O.3     1  UNL1       -0.4777
     27 H         144.3045  142.7848  166.5192 H       1  UNL1        0.1499
     28 H         138.0634  138.1699  163.9594 H       1  UNL1        0.1484
@<TRIPOS>BOND
     1     2     1    1
     2     2     3    1
     3     3     4    1
     4     4     5   am
     5     5     6    2
     6     5     7    1
     7     7     8   ar
     8     8     9   ar
     9     9    10   ar
    10    10    11   ar
    11    11    12   ar
    12    12    13   ar
    13    13    14   ar
    14    14    15   ar
    15    13    16    1
    16    16    17    1
    17    17    18    1
    18    17    19    1
    19    19    20   ar
    20    20    21   ar
    21    21    22    1
    22    21    23   ar
    23    23    24   ar
    24    24    25   ar
    25    25    26    1
    26    26     2    1
    27    15     7   ar
    28    25    19   ar
    29    15    10   ar
    30     4    27    1
    31    16    28    1
@<TRIPOS>MOLECULE
*****
 28 31 0 0 0
SMALL
GASTEIGER

@<TRIPOS>ATOM
      1 C         144.1032  145.0609  164.8121 C.3     1  UNL1        0.0491
      2 C         143.0496  144.1762  164.2142 C.3     1  UNL1        0.1855
      3 C         142.8396  144.7450  162.8422 C.3     1  UNL1        0.1335
      4 N         142.1734  144.7601  161.4984 N.am    1  UNL1       -0.2975
      5 C         141.2038  144.2180  160.4904 C.2     1  UNL1        0.2505
      6 O         141.3737  145.1226  159.3060 O.2     1  UNL1       -0.2700
      7 C         140.1527  143.2428  160.0494 C.ar    1  UNL1        0.1099
      8 C         139.6172  143.4377  158.6619 C.ar    1  UNL1        0.1281
      9 N         138.5879  142.3763  158.4090 N.ar    1  UNL1       -0.1619
     10 N         138.4872  141.5255  159.6402 N.ar    1  UNL1       -0.2104
     11 C         137.6399  140.3322  159.9691 C.ar    1  UNL1        0.1049
     12 C         137.7597  139.6746  161.3119 C.ar    1  UNL1        0.0548
     13 C         138.7268  140.2101  162.3257 C.ar    1  UNL1        0.1319
     14 N         139.5741  141.4033  161.9968 N.ar    1  UNL1       -0.2118
     15 C         139.4543  142.0610  160.6541 C.ar    1  UNL1        0.1710
     16 N         139.1411  139.8307  163.7834 N.pl3   1  UNL1       -0.3159
     17 C         139.9834  140.1021  164.9944 C.3     1  UNL1        0.0960
     18 C         139.5693  139.0368  165.9659 C.3     1  UNL1        0.0262
     19 C         141.0240  140.8835  165.7405 C.ar    1  UNL1        0.0317
     20 C         140.8123  139.9481  166.8939 C.ar    1  UNL1        0.0300
     21 C         141.6009  140.1249  168.1576 C.ar    1  UNL1        0.1401
     22 F         141.3892  139.1896  169.3110 F       1  UNL1       -0.2042
     23 C         142.6013  141.2371  168.2678 C.ar    1  UNL1        0.0327
     24 C         142.8131  142.1725  167.1145 C.ar    1  UNL1        0.0389
     25 C         142.0244  141.9956  165.8509 C.ar    1  UNL1        0.1361
     26 O         142.7555  143.1840  165.3000 O.3     1  UNL1       -0.4777
     27 H         142.5897  145.5241  161.0377 H       1  UNL1        0.1499
     28 H         138.5927  139.0468  164.0160 H       1  UNL1        0.1484
@<TRIPOS>BOND
     1     2     1    1
     2     2     3    1
     3     3     4    1
     4     4     5   am
     5     5     6    2
     6     5     7    1
     7     7     8   ar
     8     8     9   ar
     9     9    10   ar
    10    10    11   ar
    11    11    12   ar
    12    12    13   ar
    13    13    14   ar
    14    14    15   ar
    15    13    16    1
    16    16    17    1
    17    17    18    1
    18    17    19    1
    19    19    20   ar
    20    20    21   ar
    21    21    22    1
    22    21    23   ar
    23    23    24   ar
    24    24    25   ar
    25    25    26    1
    26    26     2    1
    27    15     7   ar
    28    25    19   ar
    29    15    10   ar
    30     4    27    1
    31    16    28    1
