@<TRIPOS>MOLECULE
*****
 33 37 0 0 0
SMALL
GASTEIGER

@<TRIPOS>ATOM
      1 N         141.5945  145.5232  159.8866 N.3     1  UNL1       -0.3181
      2 C         141.3462  144.0650  160.1357 C.3     1  UNL1        0.1112
      3 H         140.7296  145.9675  159.5785 H       1  UNL1        0.1190
      4 H         142.3068  145.6282  159.1641 H       1  UNL1        0.1190
      5 C         139.9776  143.4897  159.9204 C.3     1  UNL1        0.2222
      6 O         138.8471  143.8854  160.8233 O.3     1  UNL1       -0.4727
      7 C         139.0015  143.7739  162.3112 C.ar    1  UNL1        0.1538
      8 C         139.3747  144.9815  163.1190 C.ar    1  UNL1        0.0382
      9 C         139.5291  144.8700  164.6069 C.ar    1  UNL1        0.0032
     10 C         139.3101  143.5511  165.2869 C.ar    1  UNL1        0.0012
     11 C         138.9369  142.3435  164.4791 C.ar    1  UNL1        0.0145
     12 C         138.7179  141.0246  165.1591 C.2     1  UNL1       -0.0151
     13 C         138.3447  139.8171  164.3513 C.3     1  UNL1        0.1132
     14 C         138.1903  139.9285  162.8634 C.2     1  UNL1        0.2501
     15 O         137.8171  138.7210  162.0556 O.2     1  UNL1       -0.2726
     16 N         138.4093  141.2475  162.1834 N.am    1  UNL1       -0.1759
     17 C         138.7825  142.4550  162.9912 C.ar    1  UNL1        0.1068
     18 C         142.4663  143.1821  160.6002 C.3     1  UNL1        0.0916
     19 N         142.5198  142.7272  162.0286 N.3     1  UNL1       -0.2712
     20 C         142.8468  143.7072  163.1161 C.3     1  UNL1        0.0757
     21 C         142.9002  143.2523  164.5444 C.3     1  UNL1        0.0577
     22 C         142.6267  141.8173  164.8853 C.3     1  UNL1        0.1399
     23 C         142.2998  140.8373  163.7978 C.3     1  UNL1        0.0577
     24 C         142.2463  141.2923  162.3695 C.3     1  UNL1        0.0757
     25 C         142.3777  140.4219  165.3761 C.3     1  UNL1        0.0695
     26 C         142.5357  140.4201  166.8678 C.ar    1  UNL1        0.0175
     27 C         142.4087  139.3291  167.8893 C.ar    1  UNL1        0.0285
     28 C         142.6284  139.6322  169.3418 C.ar    1  UNL1        0.1400
     29 F         142.5013  138.5411  170.3632 F       1  UNL1       -0.2042
     30 C         142.9750  141.0264  169.7729 C.ar    1  UNL1        0.0327
     31 C         143.1021  142.1176  168.7514 C.ar    1  UNL1        0.0389
     32 C         142.8824  141.8144  167.2989 C.ar    1  UNL1        0.1344
     33 O         142.9387  142.6779  166.0737 O.3     1  UNL1       -0.4825
@<TRIPOS>BOND
     1     2     1    1
     2     2     5    1
     3     5     6    1
     4     6     7    1
     5     7     8   ar
     6     8     9   ar
     7     9    10   ar
     8    10    11   ar
     9    11    12    2
    10    12    13    1
    11    13    14    1
    12    14    15    2
    13    14    16    1
    14    16    17    2
    15     2    18    1
    16    18    19    1
    17    19    20    1
    18    20    21    1
    19    21    22    1
    20    22    23    1
    21    23    24    1
    22    22    25    1
    23    25    26    1
    24    26    27   ar
    25    27    28   ar
    26    28    29    1
    27    28    30   ar
    28    30    31   ar
    29    31    32   ar
    30    32    33    1
    31    17     7   ar
    32    24    19    1
    33    32    26   ar
    34    17    11   ar
    35    33    22    1
    36     1     3    1
    37     1     4    1
@<TRIPOS>MOLECULE
*****
 33 37 0 0 0
SMALL
GASTEIGER

@<TRIPOS>ATOM
      1 N         141.5452  145.5033  160.3458 N.3     1  UNL1       -0.3181
      2 C         141.5901  144.0052  160.4047 C.3     1  UNL1        0.1112
      3 H         142.4107  145.8536  159.9352 H       1  UNL1        0.1190
      4 H         141.4404  145.8777  161.2888 H       1  UNL1        0.1190
      5 C         142.7955  143.2705  159.8974 C.3     1  UNL1        0.2222
      6 O         144.0707  143.2863  160.6870 O.3     1  UNL1       -0.4727
      7 C         144.0254  143.2438  162.1857 C.ar    1  UNL1        0.1538
      8 C         144.0737  144.5190  162.9740 C.ar    1  UNL1        0.0382
      9 C         144.0284  144.4765  164.4728 C.ar    1  UNL1        0.0032
     10 C         143.9348  143.1587  165.1832 C.ar    1  UNL1        0.0012
     11 C         143.8865  141.8835  164.3949 C.ar    1  UNL1        0.0145
     12 C         143.7929  140.5657  165.1053 C.2     1  UNL1       -0.0151
     13 C         143.7447  139.2905  164.3170 C.3     1  UNL1        0.1132
     14 C         143.7900  139.3330  162.8183 C.2     1  UNL1        0.2501
     15 O         143.7417  138.0577  162.0300 O.2     1  UNL1       -0.2726
     16 N         143.8836  140.6507  162.1079 N.am    1  UNL1       -0.1759
     17 C         143.9318  141.9260  162.8962 C.ar    1  UNL1        0.1068
     18 C         140.4297  143.2417  160.9708 C.3     1  UNL1        0.0916
     19 N         140.3800  142.9311  162.4375 N.3     1  UNL1       -0.2712
     20 C         140.4562  144.0421  163.4424 C.3     1  UNL1        0.0757
     21 C         140.4066  143.7314  164.9090 C.3     1  UNL1        0.0577
     22 C         140.2808  142.3098  165.3707 C.3     1  UNL1        0.1399
     23 C         140.2046  141.1988  164.3658 C.3     1  UNL1        0.0577
     24 C         140.2542  141.5095  162.8992 C.3     1  UNL1        0.0757
     25 C         140.1573  140.9443  165.9791 C.3     1  UNL1        0.0695
     26 C         140.1461  141.1007  167.4709 C.ar    1  UNL1        0.0175
     27 C         140.0448  140.1006  168.5843 C.ar    1  UNL1        0.0285
     28 C         140.0601  140.5627  170.0112 C.ar    1  UNL1        0.1400
     29 F         139.9588  139.5626  171.1245 F       1  UNL1       -0.2042
     30 C         140.1767  142.0249  170.3249 C.ar    1  UNL1        0.0327
     31 C         140.2780  143.0250  169.2115 C.ar    1  UNL1        0.0389
     32 C         140.2627  142.5629  167.7845 C.ar    1  UNL1        0.1344
     33 O         140.3459  143.3102  166.4866 O.3     1  UNL1       -0.4825
@<TRIPOS>BOND
     1     2     1    1
     2     2     5    1
     3     5     6    1
     4     6     7    1
     5     7     8   ar
     6     8     9   ar
     7     9    10   ar
     8    10    11   ar
     9    11    12    2
    10    12    13    1
    11    13    14    1
    12    14    15    2
    13    14    16    1
    14    16    17    2
    15     2    18    1
    16    18    19    1
    17    19    20    1
    18    20    21    1
    19    21    22    1
    20    22    23    1
    21    23    24    1
    22    22    25    1
    23    25    26    1
    24    26    27   ar
    25    27    28   ar
    26    28    29    1
    27    28    30   ar
    28    30    31   ar
    29    31    32   ar
    30    32    33    1
    31    17     7   ar
    32    24    19    1
    33    32    26   ar
    34    17    11   ar
    35    33    22    1
    36     1     3    1
    37     1     4    1
@<TRIPOS>MOLECULE
*****
 33 37 0 0 0
SMALL
GASTEIGER

@<TRIPOS>ATOM
      1 N         141.6477  145.5139  159.9641 N.3     1  UNL1       -0.3181
      2 C         140.7819  144.9507  161.0518 C.3     1  UNL1        0.1112
      3 H         141.4489  145.0320  159.0875 H       1  UNL1        0.1190
      4 H         142.6292  145.3834  160.2090 H       1  UNL1        0.1190
      5 C         139.8154  143.8454  160.7444 C.3     1  UNL1        0.2222
      6 O         140.1849  142.4221  161.0400 O.3     1  UNL1       -0.4727
      7 C         139.5182  141.6931  162.1688 C.ar    1  UNL1        0.1538
      8 C         138.0980  142.0111  162.5319 C.ar    1  UNL1        0.0382
      9 C         137.4313  141.2820  163.6607 C.ar    1  UNL1        0.0032
     10 C         138.1849  140.2351  164.4263 C.ar    1  UNL1        0.0012
     11 C         139.6051  139.9172  164.0631 C.ar    1  UNL1        0.0145
     12 C         140.3586  138.8703  164.8287 C.2     1  UNL1       -0.0151
     13 C         141.7788  138.5523  164.4655 C.3     1  UNL1        0.1132
     14 C         142.4455  139.2813  163.3368 C.2     1  UNL1        0.2501
     15 O         143.8657  138.9634  162.9736 O.2     1  UNL1       -0.2726
     16 N         141.6920  140.3282  162.5712 N.am    1  UNL1       -0.1759
     17 C         140.2718  140.6462  162.9344 C.ar    1  UNL1        0.1068
     18 C         140.8825  145.4925  162.4469 C.3     1  UNL1        0.0916
     19 N         140.9648  144.5521  163.6127 N.3     1  UNL1       -0.2712
     20 C         139.8157  144.4427  164.5705 C.3     1  UNL1        0.0757
     21 C         139.8981  143.5023  165.7362 C.3     1  UNL1        0.0577
     22 C         141.1295  142.6714  165.9440 C.3     1  UNL1        0.1399
     23 C         142.2785  142.7808  164.9862 C.3     1  UNL1        0.0577
     24 C         142.1962  143.7212  163.8205 C.3     1  UNL1        0.0757
     25 C         142.2898  141.7816  166.2789 C.3     1  UNL1        0.0695
     26 C         141.9433  141.0160  167.5214 C.ar    1  UNL1        0.0175
     27 C         142.7018  139.9933  168.3145 C.ar    1  UNL1        0.0285
     28 C         142.0859  139.3872  169.5405 C.ar    1  UNL1        0.1400
     29 F         142.8443  138.3645  170.3335 F       1  UNL1       -0.2042
     30 C         140.7115  139.8037  169.9736 C.ar    1  UNL1        0.0327
     31 C         139.9530  140.8264  169.1806 C.ar    1  UNL1        0.0389
     32 C         140.5689  141.4325  167.9545 C.ar    1  UNL1        0.1344
     33 O         140.0659  142.4556  166.9797 O.3     1  UNL1       -0.4825
@<TRIPOS>BOND
     1     2     1    1
     2     2     5    1
     3     5     6    1
     4     6     7    1
     5     7     8   ar
     6     8     9   ar
     7     9    10   ar
     8    10    11   ar
     9    11    12    2
    10    12    13    1
    11    13    14    1
    12    14    15    2
    13    14    16    1
    14    16    17    2
    15     2    18    1
    16    18    19    1
    17    19    20    1
    18    20    21    1
    19    21    22    1
    20    22    23    1
    21    23    24    1
    22    22    25    1
    23    25    26    1
    24    26    27   ar
    25    27    28   ar
    26    28    29    1
    27    28    30   ar
    28    30    31   ar
    29    31    32   ar
    30    32    33    1
    31    17     7   ar
    32    24    19    1
    33    32    26   ar
    34    17    11   ar
    35    33    22    1
    36     1     3    1
    37     1     4    1
@<TRIPOS>MOLECULE
*****
 33 37 0 0 0
SMALL
GASTEIGER

@<TRIPOS>ATOM
      1 N         143.6085  139.1454  159.4418 N.3     1  UNL1       -0.3181
      2 C         143.2582  138.8592  160.8720 C.3     1  UNL1        0.1112
      3 H         142.9431  138.6752  158.8281 H       1  UNL1        0.1190
      4 H         144.5499  138.8043  159.2475 H       1  UNL1        0.1190
      5 C         142.0769  137.9933  161.1960 C.3     1  UNL1        0.2222
      6 O         140.7101  138.6009  161.3088 O.3     1  UNL1       -0.4727
      7 C         140.0600  138.7401  162.6534 C.ar    1  UNL1        0.1538
      8 C         140.0811  137.5926  163.6192 C.ar    1  UNL1        0.0382
      9 C         139.4309  137.7319  164.9638 C.ar    1  UNL1        0.0032
     10 C         138.7597  139.0187  165.3426 C.ar    1  UNL1        0.0012
     11 C         138.7385  140.1663  164.3768 C.ar    1  UNL1        0.0145
     12 C         138.0673  141.4531  164.7556 C.2     1  UNL1       -0.0151
     13 C         138.0462  142.6006  163.7898 C.3     1  UNL1        0.1132
     14 C         138.6963  142.4613  162.4452 C.2     1  UNL1        0.2501
     15 O         138.6752  143.6089  161.4795 O.2     1  UNL1       -0.2726
     16 N         139.3676  141.1745  162.0665 N.am    1  UNL1       -0.1759
     17 C         139.3887  140.0270  163.0322 C.ar    1  UNL1        0.1068
     18 C         144.0891  139.4389  161.9781 C.3     1  UNL1        0.0916
     19 N         143.4572  139.7650  163.2989 N.3     1  UNL1       -0.2712
     20 C         143.4342  138.7391  164.3930 C.3     1  UNL1        0.0757
     21 C         142.8024  139.0652  165.7137 C.3     1  UNL1        0.0577
     22 C         142.1936  140.4172  165.9404 C.3     1  UNL1        0.1399
     23 C         142.2165  141.4431  164.8464 C.3     1  UNL1        0.0577
     24 C         142.8484  141.1170  163.5256 C.3     1  UNL1        0.0757
     25 C         141.5485  141.7196  166.3116 C.3     1  UNL1        0.0695
     26 C         141.0521  141.6055  167.7226 C.ar    1  UNL1        0.0175
     27 C         140.3358  142.5743  168.6160 C.ar    1  UNL1        0.0285
     28 C         139.9578  142.1703  170.0102 C.ar    1  UNL1        0.1400
     29 F         139.2415  143.1391  170.9036 F       1  UNL1       -0.2042
     30 C         140.2960  140.7974  170.5110 C.ar    1  UNL1        0.0327
     31 C         141.0123  139.8285  169.6176 C.ar    1  UNL1        0.0389
     32 C         141.3904  140.2326  168.2233 C.ar    1  UNL1        0.1344
     33 O         142.0958  139.4982  167.1220 O.3     1  UNL1       -0.4825
@<TRIPOS>BOND
     1     2     1    1
     2     2     5    1
     3     5     6    1
     4     6     7    1
     5     7     8   ar
     6     8     9   ar
     7     9    10   ar
     8    10    11   ar
     9    11    12    2
    10    12    13    1
    11    13    14    1
    12    14    15    2
    13    14    16    1
    14    16    17    2
    15     2    18    1
    16    18    19    1
    17    19    20    1
    18    20    21    1
    19    21    22    1
    20    22    23    1
    21    23    24    1
    22    22    25    1
    23    25    26    1
    24    26    27   ar
    25    27    28   ar
    26    28    29    1
    27    28    30   ar
    28    30    31   ar
    29    31    32   ar
    30    32    33    1
    31    17     7   ar
    32    24    19    1
    33    32    26   ar
    34    17    11   ar
    35    33    22    1
    36     1     3    1
    37     1     4    1
@<TRIPOS>MOLECULE
*****
 33 37 0 0 0
SMALL
GASTEIGER

@<TRIPOS>ATOM
      1 N         138.3144  140.7647  159.8682 N.3     1  UNL1       -0.3181
      2 C         138.4602  139.8190  161.0234 C.3     1  UNL1        0.1112
      3 H         138.8006  140.3860  159.0554 H       1  UNL1        0.1190
      4 H         138.7182  141.6682  160.1154 H       1  UNL1        0.1190
      5 C         139.2344  138.5450  160.8567 C.3     1  UNL1        0.2222
      6 O         140.7209  138.5392  161.0566 O.3     1  UNL1       -0.4727
      7 C         141.2933  138.2875  162.4200 C.ar    1  UNL1        0.1538
      8 C         140.6347  137.3025  163.3398 C.ar    1  UNL1        0.0382
      9 C         141.2071  137.0508  164.7033 C.ar    1  UNL1        0.0032
     10 C         142.4382  137.7840  165.1469 C.ar    1  UNL1        0.0012
     11 C         143.0968  138.7690  164.2271 C.ar    1  UNL1        0.0145
     12 C         144.3278  139.5022  164.6707 C.2     1  UNL1       -0.0151
     13 C         144.9865  140.4872  163.7509 C.3     1  UNL1        0.1132
     14 C         144.4141  140.7389  162.3875 C.2     1  UNL1        0.2501
     15 O         145.0728  141.7239  161.4677 O.2     1  UNL1       -0.2726
     16 N         143.1831  140.0057  161.9439 N.am    1  UNL1       -0.1759
     17 C         142.5244  139.0207  162.8637 C.ar    1  UNL1        0.1068
     18 C         137.8317  140.1472  162.3452 C.3     1  UNL1        0.0916
     19 N         138.6951  140.3690  163.5517 N.3     1  UNL1       -0.2712
     20 C         138.4383  139.5945  164.8103 C.3     1  UNL1        0.0757
     21 C         139.3016  139.8163  166.0167 C.3     1  UNL1        0.0577
     22 C         140.4217  140.8126  165.9645 C.3     1  UNL1        0.1399
     23 C         140.6785  141.5871  164.7059 C.3     1  UNL1        0.0577
     24 C         139.8152  141.3653  163.4995 C.3     1  UNL1        0.0757
     25 C         141.5723  141.7701  166.0613 C.3     1  UNL1        0.0695
     26 C         142.1478  141.6651  167.4427 C.ar    1  UNL1        0.0175
     27 C         143.2929  142.3683  168.1090 C.ar    1  UNL1        0.0285
     28 C         143.6431  142.0492  169.5323 C.ar    1  UNL1        0.1400
     29 F         144.7882  142.7524  170.1986 F       1  UNL1       -0.2042
     30 C         142.8482  141.0269  170.2891 C.ar    1  UNL1        0.0327
     31 C         141.7030  140.3235  169.6227 C.ar    1  UNL1        0.0389
     32 C         141.3528  140.6427  168.1995 C.ar    1  UNL1        0.1344
     33 O         140.2861  140.1158  167.2860 O.3     1  UNL1       -0.4825
@<TRIPOS>BOND
     1     2     1    1
     2     2     5    1
     3     5     6    1
     4     6     7    1
     5     7     8   ar
     6     8     9   ar
     7     9    10   ar
     8    10    11   ar
     9    11    12    2
    10    12    13    1
    11    13    14    1
    12    14    15    2
    13    14    16    1
    14    16    17    2
    15     2    18    1
    16    18    19    1
    17    19    20    1
    18    20    21    1
    19    21    22    1
    20    22    23    1
    21    23    24    1
    22    22    25    1
    23    25    26    1
    24    26    27   ar
    25    27    28   ar
    26    28    29    1
    27    28    30   ar
    28    30    31   ar
    29    31    32   ar
    30    32    33    1
    31    17     7   ar
    32    24    19    1
    33    32    26   ar
    34    17    11   ar
    35    33    22    1
    36     1     3    1
    37     1     4    1
@<TRIPOS>MOLECULE
*****
 33 37 0 0 0
SMALL
GASTEIGER

@<TRIPOS>ATOM
      1 N         137.7960  137.6375  161.7112 N.3     1  UNL1       -0.3181
      2 C         139.1773  137.9706  162.1919 C.3     1  UNL1        0.1112
      3 H         137.6370  138.0755  160.8039 H       1  UNL1        0.1190
      4 H         137.1099  137.9847  162.3813 H       1  UNL1        0.1190
      5 C         140.0760  138.8308  161.3538 C.3     1  UNL1        0.2222
      6 O         139.6813  140.2430  161.0377 O.3     1  UNL1       -0.4727
      7 C         139.2539  141.1668  162.1394 C.ar    1  UNL1        0.1538
      8 C         137.7957  141.4222  162.3807 C.ar    1  UNL1        0.0382
      9 C         137.3683  142.3461  163.4825 C.ar    1  UNL1        0.0032
     10 C         138.3992  143.0144  164.3430 C.ar    1  UNL1        0.0012
     11 C         139.8575  142.7590  164.1017 C.ar    1  UNL1        0.0145
     12 C         140.8884  143.4273  164.9622 C.2     1  UNL1       -0.0151
     13 C         142.3467  143.1719  164.7210 C.3     1  UNL1        0.1132
     14 C         142.7740  142.2481  163.6192 C.2     1  UNL1        0.2501
     15 O         144.2323  141.9926  163.3779 O.2     1  UNL1       -0.2726
     16 N         141.7431  141.5797  162.7587 N.am    1  UNL1       -0.1759
     17 C         140.2849  141.8352  163.0000 C.ar    1  UNL1        0.1068
     18 C         139.6599  137.4435  163.5107 C.3     1  UNL1        0.0916
     19 N         140.0492  138.3961  164.6021 N.3     1  UNL1       -0.2712
     20 C         138.9964  139.1964  165.3099 C.3     1  UNL1        0.0757
     21 C         139.3858  140.1489  166.4012 C.3     1  UNL1        0.0577
     22 C         140.8279  140.3011  166.7847 C.3     1  UNL1        0.1399
     23 C         141.8807  139.5008  166.0769 C.3     1  UNL1        0.0577
     24 C         141.4914  138.5483  164.9856 C.3     1  UNL1        0.0757
     25 C         142.2221  140.5583  167.2747 C.3     1  UNL1        0.0695
     26 C         142.1473  141.5799  168.3706 C.ar    1  UNL1        0.0175
     27 C         143.2047  142.2178  169.2221 C.ar    1  UNL1        0.0285
     28 C         142.8216  143.2298  170.2608 C.ar    1  UNL1        0.1400
     29 F         143.8790  143.8677  171.1123 F       1  UNL1       -0.2042
     30 C         141.3812  143.6040  170.4481 C.ar    1  UNL1        0.0327
     31 C         140.3237  142.9662  169.5966 C.ar    1  UNL1        0.0389
     32 C         140.7068  141.9541  168.5578 C.ar    1  UNL1        0.1344
     33 O         139.8914  141.1638  167.5778 O.3     1  UNL1       -0.4825
@<TRIPOS>BOND
     1     2     1    1
     2     2     5    1
     3     5     6    1
     4     6     7    1
     5     7     8   ar
     6     8     9   ar
     7     9    10   ar
     8    10    11   ar
     9    11    12    2
    10    12    13    1
    11    13    14    1
    12    14    15    2
    13    14    16    1
    14    16    17    2
    15     2    18    1
    16    18    19    1
    17    19    20    1
    18    20    21    1
    19    21    22    1
    20    22    23    1
    21    23    24    1
    22    22    25    1
    23    25    26    1
    24    26    27   ar
    25    27    28   ar
    26    28    29    1
    27    28    30   ar
    28    30    31   ar
    29    31    32   ar
    30    32    33    1
    31    17     7   ar
    32    24    19    1
    33    32    26   ar
    34    17    11   ar
    35    33    22    1
    36     1     3    1
    37     1     4    1
@<TRIPOS>MOLECULE
*****
 33 37 0 0 0
SMALL
GASTEIGER

@<TRIPOS>ATOM
      1 N         143.3463  138.6473  158.9020 N.3     1  UNL1       -0.3181
      2 C         143.7379  139.1176  160.2715 C.3     1  UNL1        0.1112
      3 H         143.3602  139.4356  158.2549 H       1  UNL1        0.1190
      4 H         142.4073  138.2505  158.9343 H       1  UNL1        0.1190
      5 C         144.0723  140.5617  160.5014 C.3     1  UNL1        0.2222
      6 O         143.0504  141.4821  161.1001 O.3     1  UNL1       -0.4727
      7 C         143.2283  141.9914  162.4997 C.ar    1  UNL1        0.1538
      8 C         144.6066  142.2278  163.0423 C.ar    1  UNL1        0.0382
      9 C         144.7845  142.7371  164.4420 C.ar    1  UNL1        0.0032
     10 C         143.5841  143.0100  165.2990 C.ar    1  UNL1        0.0012
     11 C         142.2058  142.7736  164.7564 C.ar    1  UNL1        0.0145
     12 C         141.0054  143.0465  165.6134 C.2     1  UNL1       -0.0151
     13 C         139.6271  142.8101  165.0709 C.3     1  UNL1        0.1132
     14 C         139.4491  142.3008  163.6713 C.2     1  UNL1        0.2501
     15 O         138.0708  142.0644  163.1287 O.2     1  UNL1       -0.2726
     16 N         140.6495  142.0279  162.8142 N.am    1  UNL1       -0.1759
     17 C         142.0278  142.2643  163.3568 C.ar    1  UNL1        0.1068
     18 C         143.7950  138.1439  161.4110 C.3     1  UNL1        0.0916
     19 N         143.1860  138.5016  162.7344 N.3     1  UNL1       -0.2712
     20 C         144.0678  138.8654  163.8920 C.3     1  UNL1        0.0757
     21 C         143.4589  139.2230  165.2153 C.3     1  UNL1        0.0577
     22 C         141.9681  139.2169  165.3810 C.3     1  UNL1        0.1399
     23 C         141.0862  138.8530  164.2235 C.3     1  UNL1        0.0577
     24 C         141.6952  138.4954  162.9002 C.3     1  UNL1        0.0757
     25 C         140.5019  139.2542  165.6956 C.3     1  UNL1        0.0695
     26 C         140.3460  139.6604  167.1312 C.ar    1  UNL1        0.0175
     27 C         139.1337  139.8633  167.9909 C.ar    1  UNL1        0.0285
     28 C         139.2912  140.2799  169.4233 C.ar    1  UNL1        0.1400
     29 F         138.0790  140.4828  170.2830 F       1  UNL1       -0.2042
     30 C         140.6610  140.4935  169.9959 C.ar    1  UNL1        0.0327
     31 C         141.8734  140.2906  169.1362 C.ar    1  UNL1        0.0389
     32 C         141.7159  139.8741  167.7038 C.ar    1  UNL1        0.1344
     33 O         142.7183  139.5999  166.6222 O.3     1  UNL1       -0.4825
@<TRIPOS>BOND
     1     2     1    1
     2     2     5    1
     3     5     6    1
     4     6     7    1
     5     7     8   ar
     6     8     9   ar
     7     9    10   ar
     8    10    11   ar
     9    11    12    2
    10    12    13    1
    11    13    14    1
    12    14    15    2
    13    14    16    1
    14    16    17    2
    15     2    18    1
    16    18    19    1
    17    19    20    1
    18    20    21    1
    19    21    22    1
    20    22    23    1
    21    23    24    1
    22    22    25    1
    23    25    26    1
    24    26    27   ar
    25    27    28   ar
    26    28    29    1
    27    28    30   ar
    28    30    31   ar
    29    31    32   ar
    30    32    33    1
    31    17     7   ar
    32    24    19    1
    33    32    26   ar
    34    17    11   ar
    35    33    22    1
    36     1     3    1
    37     1     4    1
@<TRIPOS>MOLECULE
*****
 33 37 0 0 0
SMALL
GASTEIGER

@<TRIPOS>ATOM
      1 N         140.7257  141.0765  159.5829 N.3     1  UNL1       -0.3181
      2 C         139.3587  141.1509  160.1960 C.3     1  UNL1        0.1112
      3 H         140.8842  141.9015  159.0043 H       1  UNL1        0.1190
      4 H         140.7943  140.2382  159.0058 H       1  UNL1        0.1190
      5 C         138.4708  142.3253  159.9087 C.3     1  UNL1        0.2222
      6 O         138.7089  143.6332  160.6033 O.3     1  UNL1       -0.4727
      7 C         138.9486  143.6634  162.0837 C.ar    1  UNL1        0.1538
      8 C         137.7872  143.7342  163.0302 C.ar    1  UNL1        0.0382
      9 C         138.0269  143.7644  164.5107 C.ar    1  UNL1        0.0032
     10 C         139.4281  143.7239  165.0445 C.ar    1  UNL1        0.0012
     11 C         140.5896  143.6532  164.0980 C.ar    1  UNL1        0.0145
     12 C         141.9907  143.6127  164.6318 C.2     1  UNL1       -0.0151
     13 C         143.1522  143.5420  163.6852 C.3     1  UNL1        0.1132
     14 C         142.9125  143.5118  162.2049 C.2     1  UNL1        0.2501
     15 O         144.0740  143.4411  161.2583 O.2     1  UNL1       -0.2726
     16 N         141.5114  143.5523  161.6710 N.am    1  UNL1       -0.1759
     17 C         140.3499  143.6230  162.6176 C.ar    1  UNL1        0.1068
     18 C         138.8797  140.0510  161.0963 C.3     1  UNL1        0.0916
     19 N         139.2623  140.0488  162.5468 N.3     1  UNL1       -0.2712
     20 C         138.2016  140.1511  163.6024 C.3     1  UNL1        0.0757
     21 C         138.5842  140.1489  165.0527 C.3     1  UNL1        0.0577
     22 C         140.0275  140.0444  165.4474 C.3     1  UNL1        0.1399
     23 C         141.0883  139.9421  164.3918 C.3     1  UNL1        0.0577
     24 C         140.7056  139.9443  162.9415 C.3     1  UNL1        0.0757
     25 C         141.4221  139.9465  165.9913 C.3     1  UNL1        0.0695
     26 C         141.3392  139.9813  167.4887 C.ar    1  UNL1        0.0175
     27 C         142.3934  139.9197  168.5539 C.ar    1  UNL1        0.0285
     28 C         142.0019  139.9775  170.0008 C.ar    1  UNL1        0.1400
     29 F         143.0560  139.9159  171.0661 F       1  UNL1       -0.2042
     30 C         140.5562  140.0969  170.3824 C.ar    1  UNL1        0.0327
     31 C         139.5019  140.1585  169.3171 C.ar    1  UNL1        0.0389
     32 C         139.8934  140.1007  167.8702 C.ar    1  UNL1        0.1344
     33 O         139.0828  140.1397  166.6087 O.3     1  UNL1       -0.4825
@<TRIPOS>BOND
     1     2     1    1
     2     2     5    1
     3     5     6    1
     4     6     7    1
     5     7     8   ar
     6     8     9   ar
     7     9    10   ar
     8    10    11   ar
     9    11    12    2
    10    12    13    1
    11    13    14    1
    12    14    15    2
    13    14    16    1
    14    16    17    2
    15     2    18    1
    16    18    19    1
    17    19    20    1
    18    20    21    1
    19    21    22    1
    20    22    23    1
    21    23    24    1
    22    22    25    1
    23    25    26    1
    24    26    27   ar
    25    27    28   ar
    26    28    29    1
    27    28    30   ar
    28    30    31   ar
    29    31    32   ar
    30    32    33    1
    31    17     7   ar
    32    24    19    1
    33    32    26   ar
    34    17    11   ar
    35    33    22    1
    36     1     3    1
    37     1     4    1
@<TRIPOS>MOLECULE
*****
 33 37 0 0 0
SMALL
GASTEIGER

@<TRIPOS>ATOM
      1 N         145.2583  142.8515  160.6246 N.3     1  UNL1       -0.3181
      2 C         144.3605  141.8112  161.2260 C.3     1  UNL1        0.1112
      3 H         144.8217  143.2335  159.7856 H       1  UNL1        0.1190
      4 H         146.1531  142.4278  160.3793 H       1  UNL1        0.1190
      5 C         143.0469  141.4886  160.5776 C.3     1  UNL1        0.2222
      6 O         141.9461  142.5075  160.5656 O.3     1  UNL1       -0.4727
      7 C         141.5652  143.2148  161.8322 C.ar    1  UNL1        0.1538
      8 C         142.2590  144.4874  162.2184 C.ar    1  UNL1        0.0382
      9 C         141.8780  145.1948  163.4851 C.ar    1  UNL1        0.0032
     10 C         140.8032  144.6296  164.3656 C.ar    1  UNL1        0.0012
     11 C         140.1093  143.3571  163.9794 C.ar    1  UNL1        0.0145
     12 C         139.0344  142.7919  164.8598 C.2     1  UNL1       -0.0151
     13 C         138.3405  141.5194  164.4737 C.3     1  UNL1        0.1132
     14 C         138.7215  140.8120  163.2070 C.2     1  UNL1        0.2501
     15 O         138.0276  139.5395  162.8208 O.2     1  UNL1       -0.2726
     16 N         139.7964  141.3772  162.3266 N.am    1  UNL1       -0.1759
     17 C         140.4902  142.6497  162.7128 C.ar    1  UNL1        0.1068
     18 C         144.7763  141.0936  162.4758 C.3     1  UNL1        0.0916
     19 N         143.8814  141.1041  163.6797 N.3     1  UNL1       -0.2712
     20 C         143.9814  142.2183  164.6788 C.3     1  UNL1        0.0757
     21 C         143.0866  142.2288  165.8826 C.3     1  UNL1        0.0577
     22 C         142.0918  141.1249  166.0872 C.3     1  UNL1        0.1399
     23 C         141.9918  140.0107  165.0881 C.3     1  UNL1        0.0577
     24 C         142.8866  140.0002  163.8843 C.3     1  UNL1        0.0757
     25 C         141.0544  140.0950  166.4237 C.3     1  UNL1        0.0695
     26 C         140.3987  140.5007  167.7104 C.ar    1  UNL1        0.0175
     27 C         139.3077  139.8695  168.5236 C.ar    1  UNL1        0.0285
     28 C         138.8488  140.5189  169.7955 C.ar    1  UNL1        0.1400
     29 F         137.7578  139.8876  170.6087 F       1  UNL1       -0.2042
     30 C         139.4809  141.7995  170.2542 C.ar    1  UNL1        0.0327
     31 C         140.5719  142.4308  169.4411 C.ar    1  UNL1        0.0389
     32 C         141.0308  141.7814  168.1692 C.ar    1  UNL1        0.1344
     33 O         142.0772  142.1672  167.1660 O.3     1  UNL1       -0.4825
@<TRIPOS>BOND
     1     2     1    1
     2     2     5    1
     3     5     6    1
     4     6     7    1
     5     7     8   ar
     6     8     9   ar
     7     9    10   ar
     8    10    11   ar
     9    11    12    2
    10    12    13    1
    11    13    14    1
    12    14    15    2
    13    14    16    1
    14    16    17    2
    15     2    18    1
    16    18    19    1
    17    19    20    1
    18    20    21    1
    19    21    22    1
    20    22    23    1
    21    23    24    1
    22    22    25    1
    23    25    26    1
    24    26    27   ar
    25    27    28   ar
    26    28    29    1
    27    28    30   ar
    28    30    31   ar
    29    31    32   ar
    30    32    33    1
    31    17     7   ar
    32    24    19    1
    33    32    26   ar
    34    17    11   ar
    35    33    22    1
    36     1     3    1
    37     1     4    1
