@<TRIPOS>MOLECULE
*****
 38 42 0 0 0
SMALL
GASTEIGER

@<TRIPOS>ATOM
      1 C         140.1249  144.4316  163.2580 C.3     1  UNL1        0.1455
      2 C         141.4856  144.6171  163.8615 C.3     1  UNL1        0.1034
      3 N         142.7077  144.1996  163.0986 N.3     1  UNL1       -0.2689
      4 C         142.5691  143.5966  161.7321 C.3     1  UNL1        0.0737
      5 C         141.2085  143.4111  161.1286 C.3     1  UNL1        0.0356
      6 C         139.9863  143.8286  161.8916 C.3     1  UNL1        0.0846
      7 C         138.9130  144.8326  165.5209 C.3     1  UNL1        0.1741
      8 O         138.9028  144.8491  164.0209 O.3     1  UNL1       -0.3508
      9 N         138.6257  143.6432  161.2881 N.3     1  UNL1       -0.2915
     10 H         138.5552  144.3021  160.5127 H       1  UNL1        0.1236
     11 C         138.2183  142.3016  160.7548 C.3     1  UNL1        0.1152
     12 C         138.3884  141.0749  161.6011 C.ar    1  UNL1        0.0765
     13 C         138.8552  139.7927  160.9781 C.ar    1  UNL1        0.0193
     14 C         139.0254  138.5660  161.8244 C.ar    1  UNL1        0.0411
     15 C         138.7287  138.6215  163.2938 C.ar    1  UNL1        0.1708
     16 C         138.2619  139.9037  163.9167 C.ar    1  UNL1        0.1682
     17 N         138.0917  141.1304  163.0704 N.ar    1  UNL1       -0.2304
     18 N         137.9652  139.9592  165.3861 N.am    1  UNL1       -0.2639
     19 C         138.1353  138.7325  166.2324 C.2     1  UNL1        0.2718
     20 O         137.8386  138.7880  167.7017 O.2     1  UNL1       -0.2707
     21 C         138.6021  137.4503  165.6094 C.3     1  UNL1        0.2898
     22 O         138.8988  137.3949  164.1401 O.3     1  UNL1       -0.4628
     23 H         137.6588  140.8008  165.7950 H       1  UNL1        0.1565
     24 C         144.0683  144.3850  163.7021 C.3     1  UNL1        0.0970
     25 C         144.4963  143.5359  164.8623 C.3     1  UNL1        0.1263
     26 N         144.1974  142.0660  164.8664 N.ar    1  UNL1       -0.2941
     27 C         144.9068  141.1537  163.9102 C.ar    1  UNL1        0.2610
     28 O         145.9151  141.7113  162.9497 O.2     1  UNL1       -0.2670
     29 C         144.6079  139.6838  163.9143 C.ar    1  UNL1        0.0608
     30 C         143.5996  139.1262  164.8747 C.ar    1  UNL1        0.0063
     31 C         142.8901  140.0385  165.8310 C.ar    1  UNL1        0.0161
     32 C         141.8819  139.4809  166.7914 C.ar    1  UNL1        0.0021
     33 C         141.1725  140.3932  167.7476 C.ar    1  UNL1        0.0104
     34 C         141.4714  141.8631  167.7435 C.ar    1  UNL1        0.0699
     35 C         142.4796  142.4207  166.7831 C.ar    1  UNL1        0.0275
     36 C         143.1890  141.5084  165.8269 C.ar    1  UNL1        0.0631
     37 C         140.7619  142.7754  168.6998 C.1     1  UNL1        0.1005
     38 N         140.0525  143.6876  169.6561 N.1     1  UNL1       -0.1908
@<TRIPOS>BOND
     1     7     8    1
     2     1     8    1
     3     1     2    1
     4     2     3    1
     5     3    24    1
     6    24    25    1
     7    25    26    1
     8    26    27   ar
     9    27    28    2
    10    27    29   ar
    11    29    30   ar
    12    30    31   ar
    13    31    32   ar
    14    32    33   ar
    15    33    34   ar
    16    34    37    1
    17    37    38    3
    18    34    35   ar
    19    35    36   ar
    20     3     4    1
    21     4     5    1
    22     5     6    1
    23     6     9    1
    24     9    11    1
    25    11    12    1
    26    12    13   ar
    27    13    14   ar
    28    14    15   ar
    29    15    16   ar
    30    16    17   ar
    31    16    18    1
    32    18    19   am
    33    19    20    2
    34    19    21    1
    35    21    22    1
    36     6     1    1
    37    17    12   ar
    38    36    26   ar
    39    22    15    1
    40    36    31   ar
    41     9    10    1
    42    18    23    1
@<TRIPOS>MOLECULE
*****
 38 42 0 0 0
SMALL
GASTEIGER

@<TRIPOS>ATOM
      1 C         138.0990  141.2309  160.9975 C.3     1  UNL1        0.1455
      2 C         138.0862  142.6344  161.5268 C.3     1  UNL1        0.1034
      3 N         137.8854  142.8813  162.9926 N.3     1  UNL1       -0.2689
      4 C         137.6973  141.7248  163.9292 C.3     1  UNL1        0.0737
      5 C         137.7101  140.3213  163.3999 C.3     1  UNL1        0.0356
      6 C         137.9110  140.0744  161.9340 C.3     1  UNL1        0.0846
      7 C         139.6842  140.9842  158.9538 C.3     1  UNL1        0.1741
      8 O         138.2999  140.9840  159.5317 O.3     1  UNL1       -0.3508
      9 N         137.9238  138.6710  161.4047 N.3     1  UNL1       -0.2915
     10 H         137.3750  138.6755  160.5450 H       1  UNL1        0.1236
     11 C         139.2276  138.0028  161.0826 C.3     1  UNL1        0.1152
     12 C         140.4148  138.2044  161.9770 C.ar    1  UNL1        0.0765
     13 C         140.5571  137.3909  163.2293 C.ar    1  UNL1        0.0193
     14 C         141.7442  137.5925  164.1237 C.ar    1  UNL1        0.0411
     15 C         142.7891  138.6076  163.7659 C.ar    1  UNL1        0.1708
     16 C         142.6468  139.4210  162.5137 C.ar    1  UNL1        0.1682
     17 N         141.4596  139.2194  161.6193 N.ar    1  UNL1       -0.2304
     18 N         143.6916  140.4361  162.1559 N.am    1  UNL1       -0.2639
     19 C         144.8788  140.6377  163.0503 C.2     1  UNL1        0.2718
     20 O         145.9236  141.6527  162.6926 O.2     1  UNL1       -0.2707
     21 C         145.0211  139.8242  164.3026 C.3     1  UNL1        0.2898
     22 O         143.9763  138.8092  164.6603 O.3     1  UNL1       -0.4628
     23 H         143.5982  140.9700  161.3340 H       1  UNL1        0.1565
     24 C         137.8725  144.2848  163.5219 C.3     1  UNL1        0.0970
     25 C         138.8432  144.6922  164.5905 C.3     1  UNL1        0.1263
     26 N         140.3045  144.3941  164.4296 N.ar    1  UNL1       -0.2941
     27 C         141.1129  145.1351  163.4063 C.ar    1  UNL1        0.2610
     28 O         140.4601  146.1744  162.5438 O.2     1  UNL1       -0.2670
     29 C         142.5741  144.8370  163.2454 C.ar    1  UNL1        0.0608
     30 C         143.2269  143.7977  164.1078 C.ar    1  UNL1        0.0063
     31 C         142.4185  143.0566  165.1311 C.ar    1  UNL1        0.0161
     32 C         143.0713  142.0173  165.9936 C.ar    1  UNL1        0.0021
     33 C         142.2629  141.2763  167.0169 C.ar    1  UNL1        0.0104
     34 C         140.8016  141.5745  167.1778 C.ar    1  UNL1        0.0699
     35 C         140.1488  142.6137  166.3154 C.ar    1  UNL1        0.0275
     36 C         140.9573  143.3548  165.2920 C.ar    1  UNL1        0.0631
     37 C         139.9932  140.8333  168.2011 C.1     1  UNL1        0.1005
     38 N         139.1848  140.0922  169.2244 N.1     1  UNL1       -0.1908
@<TRIPOS>BOND
     1     7     8    1
     2     1     8    1
     3     1     2    1
     4     2     3    1
     5     3    24    1
     6    24    25    1
     7    25    26    1
     8    26    27   ar
     9    27    28    2
    10    27    29   ar
    11    29    30   ar
    12    30    31   ar
    13    31    32   ar
    14    32    33   ar
    15    33    34   ar
    16    34    37    1
    17    37    38    3
    18    34    35   ar
    19    35    36   ar
    20     3     4    1
    21     4     5    1
    22     5     6    1
    23     6     9    1
    24     9    11    1
    25    11    12    1
    26    12    13   ar
    27    13    14   ar
    28    14    15   ar
    29    15    16   ar
    30    16    17   ar
    31    16    18    1
    32    18    19   am
    33    19    20    2
    34    19    21    1
    35    21    22    1
    36     6     1    1
    37    17    12   ar
    38    36    26   ar
    39    22    15    1
    40    36    31   ar
    41     9    10    1
    42    18    23    1
@<TRIPOS>MOLECULE
*****
 38 42 0 0 0
SMALL
GASTEIGER

@<TRIPOS>ATOM
      1 C         143.6180  139.0089  162.3754 C.3     1  UNL1        0.1455
      2 C         142.3980  138.2289  162.7671 C.3     1  UNL1        0.1034
      3 N         141.9485  138.2082  164.1980 N.3     1  UNL1       -0.2689
      4 C         142.7188  138.9676  165.2372 C.3     1  UNL1        0.0737
      5 C         143.9387  139.7477  164.8455 C.3     1  UNL1        0.0356
      6 C         144.3883  139.7682  163.4146 C.3     1  UNL1        0.0846
      7 C         143.4506  139.9970  159.9784 C.3     1  UNL1        0.1741
      8 O         144.0675  139.0295  160.9446 O.3     1  UNL1       -0.3508
      9 N         145.6082  140.5483  163.0229 N.3     1  UNL1       -0.2915
     10 H         145.6958  140.4687  162.0098 H       1  UNL1        0.1236
     11 C         145.7024  142.0086  163.3523 C.3     1  UNL1        0.1152
     12 C         144.5022  142.8933  163.1886 C.ar    1  UNL1        0.0765
     13 C         143.8690  143.5285  164.3910 C.ar    1  UNL1        0.0193
     14 C         142.6688  144.4132  164.2273 C.ar    1  UNL1        0.0411
     15 C         142.1017  144.6627  162.8612 C.ar    1  UNL1        0.1708
     16 C         142.7349  144.0275  161.6589 C.ar    1  UNL1        0.1682
     17 N         143.9351  143.1429  161.8226 N.ar    1  UNL1       -0.2304
     18 N         142.1678  144.2770  160.2927 N.am    1  UNL1       -0.2639
     19 C         140.9676  145.1617  160.1290 C.2     1  UNL1        0.2718
     20 O         140.4005  145.4112  158.7630 O.2     1  UNL1       -0.2707
     21 C         140.3344  145.7969  161.3315 C.3     1  UNL1        0.2898
     22 O         140.9015  145.5474  162.6975 O.3     1  UNL1       -0.4628
     23 H         142.5833  143.8601  159.5036 H       1  UNL1        0.1565
     24 C         140.7286  137.4282  164.5897 C.3     1  UNL1        0.0970
     25 C         139.4791  138.1478  165.0034 C.3     1  UNL1        0.1263
     26 N         138.9919  139.3226  164.2080 N.ar    1  UNL1       -0.2941
     27 C         138.3047  139.1047  162.8927 C.ar    1  UNL1        0.2610
     28 O         138.1046  137.7120  162.3726 O.2     1  UNL1       -0.2670
     29 C         137.8176  140.2795  162.0973 C.ar    1  UNL1        0.0608
     30 C         138.0177  141.6722  162.6173 C.ar    1  UNL1        0.0063
     31 C         138.7049  141.8901  163.9327 C.ar    1  UNL1        0.0161
     32 C         138.9050  143.2827  164.4527 C.ar    1  UNL1        0.0021
     33 C         139.5923  143.5006  165.7681 C.ar    1  UNL1        0.0104
     34 C         140.0794  142.3258  166.5634 C.ar    1  UNL1        0.0699
     35 C         139.8793  140.9332  166.0434 C.ar    1  UNL1        0.0275
     36 C         139.1921  140.7153  164.7281 C.ar    1  UNL1        0.0631
     37 C         140.7667  142.5438  167.8789 C.1     1  UNL1        0.1005
     38 N         141.4539  142.7617  169.1942 N.1     1  UNL1       -0.1908
@<TRIPOS>BOND
     1     7     8    1
     2     1     8    1
     3     1     2    1
     4     2     3    1
     5     3    24    1
     6    24    25    1
     7    25    26    1
     8    26    27   ar
     9    27    28    2
    10    27    29   ar
    11    29    30   ar
    12    30    31   ar
    13    31    32   ar
    14    32    33   ar
    15    33    34   ar
    16    34    37    1
    17    37    38    3
    18    34    35   ar
    19    35    36   ar
    20     3     4    1
    21     4     5    1
    22     5     6    1
    23     6     9    1
    24     9    11    1
    25    11    12    1
    26    12    13   ar
    27    13    14   ar
    28    14    15   ar
    29    15    16   ar
    30    16    17   ar
    31    16    18    1
    32    18    19   am
    33    19    20    2
    34    19    21    1
    35    21    22    1
    36     6     1    1
    37    17    12   ar
    38    36    26   ar
    39    22    15    1
    40    36    31   ar
    41     9    10    1
    42    18    23    1
@<TRIPOS>MOLECULE
*****
 38 42 0 0 0
SMALL
GASTEIGER

@<TRIPOS>ATOM
      1 C         143.2561  143.3006  162.1759 C.3     1  UNL1        0.1455
      2 C         143.9029  141.9963  162.5370 C.3     1  UNL1        0.1034
      3 N         143.8718  141.5113  163.9561 N.3     1  UNL1       -0.2689
      4 C         143.1940  142.3306  165.0141 C.3     1  UNL1        0.0737
      5 C         142.5472  143.6350  164.6529 C.3     1  UNL1        0.0356
      6 C         142.5783  144.1199  163.2338 C.3     1  UNL1        0.0846
      7 C         142.9800  142.8395  159.6339 C.3     1  UNL1        0.1741
      8 O         143.2871  143.7856  160.7568 O.3     1  UNL1       -0.3508
      9 N         141.9315  145.4242  162.8726 N.3     1  UNL1       -0.2915
     10 H         142.3481  145.7255  161.9917 H       1  UNL1        0.1236
     11 C         140.4437  145.5002  162.6964 C.3     1  UNL1        0.1152
     12 C         139.6531  144.2499  162.4482 C.ar    1  UNL1        0.0765
     13 C         138.8132  143.6637  163.5441 C.ar    1  UNL1        0.0193
     14 C         138.0225  142.4134  163.2959 C.ar    1  UNL1        0.0411
     15 C         138.0718  141.7494  161.9517 C.ar    1  UNL1        0.1708
     16 C         138.9116  142.3356  160.8558 C.ar    1  UNL1        0.1682
     17 N         139.7023  143.5859  161.1041 N.ar    1  UNL1       -0.2304
     18 N         138.9608  141.6716  159.5117 N.am    1  UNL1       -0.2639
     19 C         138.1702  140.4213  159.2634 C.2     1  UNL1        0.2718
     20 O         138.2194  139.7573  157.9193 O.2     1  UNL1       -0.2707
     21 C         137.3303  139.8350  160.3593 C.3     1  UNL1        0.2898
     22 O         137.2811  140.4991  161.7034 O.3     1  UNL1       -0.4628
     23 H         139.5121  142.0564  158.7924 H       1  UNL1        0.1565
     24 C         144.5186  140.2070  164.3172 C.3     1  UNL1        0.0970
     25 C         143.6741  139.0462  164.7526 C.3     1  UNL1        0.1263
     26 N         142.4047  138.7260  164.0205 N.ar    1  UNL1       -0.2941
     27 C         142.4613  138.1787  162.6251 C.ar    1  UNL1        0.2610
     28 O         143.7875  137.9516  161.9617 O.2     1  UNL1       -0.2670
     29 C         141.1919  137.8585  161.8929 C.ar    1  UNL1        0.0608
     30 C         139.8659  138.0855  162.5562 C.ar    1  UNL1        0.0063
     31 C         139.8092  138.6328  163.9516 C.ar    1  UNL1        0.0161
     32 C         138.4831  138.8599  164.6149 C.ar    1  UNL1        0.0021
     33 C         138.4264  139.4071  166.0103 C.ar    1  UNL1        0.0104
     34 C         139.6958  139.7274  166.7425 C.ar    1  UNL1        0.0699
     35 C         141.0219  139.5003  166.0792 C.ar    1  UNL1        0.0275
     36 C         141.0786  138.9531  164.6838 C.ar    1  UNL1        0.0631
     37 C         139.6391  140.2747  168.1380 C.1     1  UNL1        0.1005
     38 N         139.5824  140.8220  169.5334 N.1     1  UNL1       -0.1908
@<TRIPOS>BOND
     1     7     8    1
     2     1     8    1
     3     1     2    1
     4     2     3    1
     5     3    24    1
     6    24    25    1
     7    25    26    1
     8    26    27   ar
     9    27    28    2
    10    27    29   ar
    11    29    30   ar
    12    30    31   ar
    13    31    32   ar
    14    32    33   ar
    15    33    34   ar
    16    34    37    1
    17    37    38    3
    18    34    35   ar
    19    35    36   ar
    20     3     4    1
    21     4     5    1
    22     5     6    1
    23     6     9    1
    24     9    11    1
    25    11    12    1
    26    12    13   ar
    27    13    14   ar
    28    14    15   ar
    29    15    16   ar
    30    16    17   ar
    31    16    18    1
    32    18    19   am
    33    19    20    2
    34    19    21    1
    35    21    22    1
    36     6     1    1
    37    17    12   ar
    38    36    26   ar
    39    22    15    1
    40    36    31   ar
    41     9    10    1
    42    18    23    1
@<TRIPOS>MOLECULE
*****
 38 42 0 0 0
SMALL
GASTEIGER

@<TRIPOS>ATOM
      1 C         142.4343  144.1270  161.3052 C.3     1  UNL1        0.1455
      2 C         141.0492  144.5049  161.7397 C.3     1  UNL1        0.1034
      3 N         140.7583  144.7472  163.1911 N.3     1  UNL1       -0.2689
      4 C         141.8526  144.6116  164.2081 C.3     1  UNL1        0.0737
      5 C         143.2376  144.2337  163.7737 C.3     1  UNL1        0.0356
      6 C         143.5285  143.9915  162.3221 C.3     1  UNL1        0.0846
      7 C         142.2426  142.6282  159.1917 C.3     1  UNL1        0.1741
      8 O         142.7251  143.8848  159.8538 O.3     1  UNL1       -0.3508
      9 N         144.9136  143.6136  161.8877 N.3     1  UNL1       -0.2915
     10 H         145.5527  143.9714  162.5975 H       1  UNL1        0.1236
     11 C         145.2657  142.1710  161.6756 C.3     1  UNL1        0.1152
     12 C         144.5880  141.1065  162.4865 C.ar    1  UNL1        0.0765
     13 C         145.2284  140.6008  163.7452 C.ar    1  UNL1        0.0193
     14 C         144.5507  139.5363  164.5561 C.ar    1  UNL1        0.0411
     15 C         143.2326  138.9775  164.1084 C.ar    1  UNL1        0.1708
     16 C         142.5923  139.4832  162.8497 C.ar    1  UNL1        0.1682
     17 N         143.2700  140.5477  162.0388 N.ar    1  UNL1       -0.2304
     18 N         141.2742  138.9244  162.4019 N.am    1  UNL1       -0.2639
     19 C         140.5965  137.8599  163.2129 C.2     1  UNL1        0.2718
     20 O         139.2785  137.3010  162.7652 O.2     1  UNL1       -0.2707
     21 C         141.2369  137.3542  164.4716 C.3     1  UNL1        0.2898
     22 O         142.5550  137.9130  164.9193 O.3     1  UNL1       -0.4628
     23 H         140.8539  139.2562  161.5758 H       1  UNL1        0.1565
     24 C         139.3732  145.1250  163.6255 C.3     1  UNL1        0.0970
     25 C         138.7359  144.4269  164.7903 C.3     1  UNL1        0.1263
     26 N         138.6511  142.9295  164.8123 N.ar    1  UNL1       -0.2941
     27 C         137.9302  142.2030  163.7158 C.ar    1  UNL1        0.2610
     28 O         137.2940  142.9738  162.5972 O.2     1  UNL1       -0.2670
     29 C         137.8453  140.7055  163.7378 C.ar    1  UNL1        0.0608
     30 C         138.4814  139.9346  164.8563 C.ar    1  UNL1        0.0063
     31 C         139.2024  140.6612  165.9529 C.ar    1  UNL1        0.0161
     32 C         139.8385  139.8903  167.0714 C.ar    1  UNL1        0.0021
     33 C         140.5594  140.6168  168.1679 C.ar    1  UNL1        0.0104
     34 C         140.6442  142.1143  168.1459 C.ar    1  UNL1        0.0699
     35 C         140.0081  142.8852  167.0274 C.ar    1  UNL1        0.0275
     36 C         139.2872  142.1586  165.9309 C.ar    1  UNL1        0.0631
     37 C         141.3652  142.8408  169.2425 C.1     1  UNL1        0.1005
     38 N         142.0861  143.5674  170.3390 N.1     1  UNL1       -0.1908
@<TRIPOS>BOND
     1     7     8    1
     2     1     8    1
     3     1     2    1
     4     2     3    1
     5     3    24    1
     6    24    25    1
     7    25    26    1
     8    26    27   ar
     9    27    28    2
    10    27    29   ar
    11    29    30   ar
    12    30    31   ar
    13    31    32   ar
    14    32    33   ar
    15    33    34   ar
    16    34    37    1
    17    37    38    3
    18    34    35   ar
    19    35    36   ar
    20     3     4    1
    21     4     5    1
    22     5     6    1
    23     6     9    1
    24     9    11    1
    25    11    12    1
    26    12    13   ar
    27    13    14   ar
    28    14    15   ar
    29    15    16   ar
    30    16    17   ar
    31    16    18    1
    32    18    19   am
    33    19    20    2
    34    19    21    1
    35    21    22    1
    36     6     1    1
    37    17    12   ar
    38    36    26   ar
    39    22    15    1
    40    36    31   ar
    41     9    10    1
    42    18    23    1
@<TRIPOS>MOLECULE
*****
 38 42 0 0 0
SMALL
GASTEIGER

@<TRIPOS>ATOM
      1 C         144.0844  143.1546  162.1598 C.3     1  UNL1        0.1455
      2 C         144.4381  142.1496  163.2156 C.3     1  UNL1        0.1034
      3 N         144.4430  140.6862  162.8864 N.3     1  UNL1       -0.2689
      4 C         144.0944  140.2278  161.5013 C.3     1  UNL1        0.0737
      5 C         143.7407  141.2328  160.4455 C.3     1  UNL1        0.0356
      6 C         143.7358  142.6963  160.7747 C.3     1  UNL1        0.0846
      7 C         143.6509  145.0790  163.8506 C.3     1  UNL1        0.1741
      8 O         144.0794  144.6180  162.4890 O.3     1  UNL1       -0.3508
      9 N         143.3821  143.7014  159.7189 N.3     1  UNL1       -0.2915
     10 H         143.9028  143.4434  158.8806 H       1  UNL1        0.1236
     11 C         141.9522  143.8802  159.3026 C.3     1  UNL1        0.1152
     12 C         140.8478  143.6308  160.2865 C.ar    1  UNL1        0.0765
     13 C         139.8057  142.5914  159.9967 C.ar    1  UNL1        0.0193
     14 C         138.7013  142.3420  160.9806 C.ar    1  UNL1        0.0411
     15 C         138.6390  143.1318  162.2544 C.ar    1  UNL1        0.1708
     16 C         139.6811  144.1711  162.5441 C.ar    1  UNL1        0.1682
     17 N         140.7854  144.4206  161.5602 N.ar    1  UNL1       -0.2304
     18 N         139.6188  144.9610  163.8178 N.am    1  UNL1       -0.2639
     19 C         138.5144  144.7115  164.8017 C.2     1  UNL1        0.2718
     20 O         138.4520  145.5014  166.0754 O.2     1  UNL1       -0.2707
     21 C         137.4723  143.6722  164.5120 C.3     1  UNL1        0.2898
     22 O         137.5346  142.8824  163.2383 O.3     1  UNL1       -0.4628
     23 H         140.3027  145.6431  164.0080 H       1  UNL1        0.1565
     24 C         144.7967  139.6811  163.9422 C.3     1  UNL1        0.0970
     25 C         143.7169  138.8773  164.6042 C.3     1  UNL1        0.1263
     26 N         142.3021  139.3755  164.6010 N.ar    1  UNL1       -0.2941
     27 C         141.3356  138.8822  163.5655 C.ar    1  UNL1        0.2610
     28 O         141.7838  137.8906  162.5330 O.2     1  UNL1       -0.2670
     29 C         139.9207  139.3805  163.5623 C.ar    1  UNL1        0.0608
     30 C         139.4725  140.3720  164.5947 C.ar    1  UNL1        0.0063
     31 C         140.4391  140.8654  165.6303 C.ar    1  UNL1        0.0161
     32 C         139.9908  141.8570  166.6627 C.ar    1  UNL1        0.0021
     33 C         140.9574  142.3502  167.6982 C.ar    1  UNL1        0.0104
     34 C         142.3722  141.8520  167.7014 C.ar    1  UNL1        0.0699
     35 C         142.8204  140.8604  166.6690 C.ar    1  UNL1        0.0275
     36 C         141.8539  140.3671  165.6335 C.ar    1  UNL1        0.0631
     37 C         143.3388  142.3453  168.7370 C.1     1  UNL1        0.1005
     38 N         144.3053  142.8386  169.7725 N.1     1  UNL1       -0.1908
@<TRIPOS>BOND
     1     7     8    1
     2     1     8    1
     3     1     2    1
     4     2     3    1
     5     3    24    1
     6    24    25    1
     7    25    26    1
     8    26    27   ar
     9    27    28    2
    10    27    29   ar
    11    29    30   ar
    12    30    31   ar
    13    31    32   ar
    14    32    33   ar
    15    33    34   ar
    16    34    37    1
    17    37    38    3
    18    34    35   ar
    19    35    36   ar
    20     3     4    1
    21     4     5    1
    22     5     6    1
    23     6     9    1
    24     9    11    1
    25    11    12    1
    26    12    13   ar
    27    13    14   ar
    28    14    15   ar
    29    15    16   ar
    30    16    17   ar
    31    16    18    1
    32    18    19   am
    33    19    20    2
    34    19    21    1
    35    21    22    1
    36     6     1    1
    37    17    12   ar
    38    36    26   ar
    39    22    15    1
    40    36    31   ar
    41     9    10    1
    42    18    23    1
@<TRIPOS>MOLECULE
*****
 38 42 0 0 0
SMALL
GASTEIGER

@<TRIPOS>ATOM
      1 C         143.7115  141.2458  163.3778 C.3     1  UNL1        0.1455
      2 C         143.1949  142.0694  164.5201 C.3     1  UNL1        0.1034
      3 N         142.9926  141.4406  165.8668 N.3     1  UNL1       -0.2689
      4 C         143.3069  139.9881  166.0713 C.3     1  UNL1        0.0737
      5 C         143.8235  139.1646  164.9289 C.3     1  UNL1        0.0356
      6 C         144.0258  139.7935  163.5822 C.3     1  UNL1        0.0846
      7 C         142.7541  142.4990  161.3131 C.3     1  UNL1        0.1741
      8 O         143.9137  141.8746  162.0311 O.3     1  UNL1       -0.3508
      9 N         144.5423  138.9699  162.4398 N.3     1  UNL1       -0.2915
     10 H         145.3763  138.4890  162.7770 H       1  UNL1        0.1236
     11 C         143.6663  137.9277  161.8102 C.3     1  UNL1        0.1152
     12 C         142.1941  138.1746  161.6632 C.ar    1  UNL1        0.0765
     13 C         141.2274  137.5338  162.6146 C.ar    1  UNL1        0.0193
     14 C         139.7552  137.7807  162.4676 C.ar    1  UNL1        0.0411
     15 C         139.2496  138.6684  161.3691 C.ar    1  UNL1        0.1708
     16 C         140.2163  139.3090  160.4177 C.ar    1  UNL1        0.1682
     17 N         141.6885  139.0621  160.5648 N.ar    1  UNL1       -0.2304
     18 N         139.7107  140.1967  159.3193 N.am    1  UNL1       -0.2639
     19 C         138.2385  140.4436  159.1722 C.2     1  UNL1        0.2718
     20 O         137.7329  141.3312  158.0738 O.2     1  UNL1       -0.2707
     21 C         137.2718  139.8029  160.1236 C.3     1  UNL1        0.2898
     22 O         137.7774  138.9153  161.2220 O.3     1  UNL1       -0.4628
     23 H         140.3451  140.6172  158.6948 H       1  UNL1        0.1565
     24 C         142.4760  142.2641  167.0092 C.3     1  UNL1        0.0970
     25 C         141.0051  142.5283  167.1383 C.3     1  UNL1        0.1263
     26 N         140.0151  141.5341  166.6078 N.ar    1  UNL1       -0.2941
     27 C         139.7811  140.2455  167.3390 C.ar    1  UNL1        0.2610
     28 O         140.5370  139.9510  168.6008 O.2     1  UNL1       -0.2670
     29 C         138.7911  139.2512  166.8085 C.ar    1  UNL1        0.0608
     30 C         138.0352  139.5456  165.5468 C.ar    1  UNL1        0.0063
     31 C         138.2692  140.8343  164.8156 C.ar    1  UNL1        0.0161
     32 C         137.5133  141.1287  163.5539 C.ar    1  UNL1        0.0021
     33 C         137.7473  142.4173  162.8227 C.ar    1  UNL1        0.0104
     34 C         138.7373  143.4115  163.3533 C.ar    1  UNL1        0.0699
     35 C         139.4932  143.1171  164.6149 C.ar    1  UNL1        0.0275
     36 C         139.2592  141.8285  165.3461 C.ar    1  UNL1        0.0631
     37 C         138.9713  144.7002  162.6220 C.1     1  UNL1        0.1005
     38 N         139.2054  145.9888  161.8909 N.1     1  UNL1       -0.1908
@<TRIPOS>BOND
     1     7     8    1
     2     1     8    1
     3     1     2    1
     4     2     3    1
     5     3    24    1
     6    24    25    1
     7    25    26    1
     8    26    27   ar
     9    27    28    2
    10    27    29   ar
    11    29    30   ar
    12    30    31   ar
    13    31    32   ar
    14    32    33   ar
    15    33    34   ar
    16    34    37    1
    17    37    38    3
    18    34    35   ar
    19    35    36   ar
    20     3     4    1
    21     4     5    1
    22     5     6    1
    23     6     9    1
    24     9    11    1
    25    11    12    1
    26    12    13   ar
    27    13    14   ar
    28    14    15   ar
    29    15    16   ar
    30    16    17   ar
    31    16    18    1
    32    18    19   am
    33    19    20    2
    34    19    21    1
    35    21    22    1
    36     6     1    1
    37    17    12   ar
    38    36    26   ar
    39    22    15    1
    40    36    31   ar
    41     9    10    1
    42    18    23    1
@<TRIPOS>MOLECULE
*****
 38 42 0 0 0
SMALL
GASTEIGER

@<TRIPOS>ATOM
      1 C         140.3099  138.4047  162.7704 C.3     1  UNL1        0.1455
      2 C         141.4373  138.9382  161.9372 C.3     1  UNL1        0.1034
      3 N         142.8231  139.0082  162.5069 N.3     1  UNL1       -0.2689
      4 C         143.0815  138.5447  163.9100 C.3     1  UNL1        0.0737
      5 C         141.9540  138.0112  164.7432 C.3     1  UNL1        0.0356
      6 C         140.5682  137.9412  164.1734 C.3     1  UNL1        0.0846
      7 C         138.6253  138.9694  160.8748 C.3     1  UNL1        0.1741
      8 O         138.9241  138.3347  162.2007 O.3     1  UNL1       -0.3508
      9 N         139.4408  137.4077  165.0066 N.3     1  UNL1       -0.2915
     10 H         139.8595  136.8168  165.7249 H       1  UNL1        0.1236
     11 C         138.5149  138.3550  165.7106 C.3     1  UNL1        0.1152
     12 C         139.0644  139.5730  166.3922 C.ar    1  UNL1        0.0765
     13 C         139.4792  140.7640  165.5801 C.ar    1  UNL1        0.0193
     14 C         140.0287  141.9820  166.2617 C.ar    1  UNL1        0.0411
     15 C         140.1632  142.0090  167.7555 C.ar    1  UNL1        0.1708
     16 C         139.7484  140.8181  168.5675 C.ar    1  UNL1        0.1682
     17 N         139.1989  139.6001  167.8859 N.ar    1  UNL1       -0.2304
     18 N         139.8829  140.8451  170.0613 N.am    1  UNL1       -0.2639
     19 C         140.4324  142.0631  170.7429 C.2     1  UNL1        0.2718
     20 O         140.5669  142.0901  172.2366 O.2     1  UNL1       -0.2707
     21 C         140.8472  143.2541  169.9308 C.3     1  UNL1        0.2898
     22 O         140.7127  143.2270  168.4371 O.3     1  UNL1       -0.4628
     23 H         139.6107  140.0634  170.5943 H       1  UNL1        0.1565
     24 C         143.9505  139.5417  161.6737 C.3     1  UNL1        0.0970
     25 C         144.0719  141.0173  161.4326 C.3     1  UNL1        0.1263
     26 N         143.8527  141.9820  162.5601 N.ar    1  UNL1       -0.2941
     27 C         144.9175  142.1766  163.5984 C.ar    1  UNL1        0.2610
     28 O         146.2017  141.4065  163.5093 O.2     1  UNL1       -0.2670
     29 C         144.6983  143.1413  164.7260 C.ar    1  UNL1        0.0608
     30 C         143.4142  143.9114  164.8152 C.ar    1  UNL1        0.0063
     31 C         142.3493  143.7168  163.7768 C.ar    1  UNL1        0.0161
     32 C         141.0652  144.4869  163.8660 C.ar    1  UNL1        0.0021
     33 C         140.0003  144.2923  162.8277 C.ar    1  UNL1        0.0104
     34 C         140.2196  143.3276  161.7002 C.ar    1  UNL1        0.0699
     35 C         141.5036  142.5575  161.6110 C.ar    1  UNL1        0.0275
     36 C         142.5685  142.7521  162.6493 C.ar    1  UNL1        0.0631
     37 C         139.1546  143.1330  160.6618 C.1     1  UNL1        0.1005
     38 N         138.0897  142.9384  159.6235 N.1     1  UNL1       -0.1908
@<TRIPOS>BOND
     1     7     8    1
     2     1     8    1
     3     1     2    1
     4     2     3    1
     5     3    24    1
     6    24    25    1
     7    25    26    1
     8    26    27   ar
     9    27    28    2
    10    27    29   ar
    11    29    30   ar
    12    30    31   ar
    13    31    32   ar
    14    32    33   ar
    15    33    34   ar
    16    34    37    1
    17    37    38    3
    18    34    35   ar
    19    35    36   ar
    20     3     4    1
    21     4     5    1
    22     5     6    1
    23     6     9    1
    24     9    11    1
    25    11    12    1
    26    12    13   ar
    27    13    14   ar
    28    14    15   ar
    29    15    16   ar
    30    16    17   ar
    31    16    18    1
    32    18    19   am
    33    19    20    2
    34    19    21    1
    35    21    22    1
    36     6     1    1
    37    17    12   ar
    38    36    26   ar
    39    22    15    1
    40    36    31   ar
    41     9    10    1
    42    18    23    1
@<TRIPOS>MOLECULE
*****
 38 42 0 0 0
SMALL
GASTEIGER

@<TRIPOS>ATOM
      1 C         141.4645  138.6131  161.0869 C.3     1  UNL1        0.1455
      2 C         142.7807  138.8342  161.7715 C.3     1  UNL1        0.1034
      3 N         142.8998  138.6278  163.2525 N.3     1  UNL1       -0.2689
      4 C         141.7027  138.2003  164.0488 C.3     1  UNL1        0.0737
      5 C         140.3865  137.9791  163.3642 C.3     1  UNL1        0.0356
      6 C         140.2674  138.1855  161.8832 C.3     1  UNL1        0.0846
      7 C         142.4758  138.4281  158.7008 C.3     1  UNL1        0.1741
      8 O         141.3454  138.8195  159.6060 O.3     1  UNL1       -0.3508
      9 N         138.9512  137.9644  161.1985 N.3     1  UNL1       -0.2915
     10 H         138.6213  137.0428  161.4853 H       1  UNL1        0.1236
     11 C         137.8177  138.9202  161.4258 C.3     1  UNL1        0.1152
     12 C         138.0965  140.3804  161.6256 C.ar    1  UNL1        0.0765
     13 C         137.3983  141.1347  162.7183 C.ar    1  UNL1        0.0193
     14 C         137.6772  142.5949  162.9181 C.ar    1  UNL1        0.0411
     15 C         138.6542  143.3009  162.0253 C.ar    1  UNL1        0.1708
     16 C         139.3523  142.5467  160.9327 C.ar    1  UNL1        0.1682
     17 N         139.0735  141.0864  160.7329 N.ar    1  UNL1       -0.2304
     18 N         140.3294  143.2527  160.0399 N.am    1  UNL1       -0.2639
     19 C         140.6082  144.7129  160.2397 C.2     1  UNL1        0.2718
     20 O         141.5852  145.4189  159.3470 O.2     1  UNL1       -0.2707
     21 C         139.9100  145.4672  161.3323 C.3     1  UNL1        0.2898
     22 O         138.9331  144.7612  162.2251 O.3     1  UNL1       -0.4628
     23 H         140.7876  142.7576  159.3228 H       1  UNL1        0.1565
     24 C         144.2160  138.8490  163.9371 C.3     1  UNL1        0.0970
     25 C         144.4567  140.1122  164.7095 C.3     1  UNL1        0.1263
     26 N         143.8255  141.3970  164.2615 N.ar    1  UNL1       -0.2941
     27 C         144.4747  142.2166  163.1860 C.ar    1  UNL1        0.2610
     28 O         145.7553  141.7513  162.5585 O.2     1  UNL1       -0.2670
     29 C         143.8435  143.5014  162.7380 C.ar    1  UNL1        0.0608
     30 C         142.5630  143.9667  163.3656 C.ar    1  UNL1        0.0063
     31 C         141.9137  143.1472  164.4411 C.ar    1  UNL1        0.0161
     32 C         140.6332  143.6125  165.0686 C.ar    1  UNL1        0.0021
     33 C         139.9840  142.7929  166.1441 C.ar    1  UNL1        0.0104
     34 C         140.6152  141.5081  166.5921 C.ar    1  UNL1        0.0699
     35 C         141.8957  141.0428  165.9646 C.ar    1  UNL1        0.0275
     36 C         142.5449  141.8623  164.8891 C.ar    1  UNL1        0.0631
     37 C         139.9659  140.6885  167.6677 C.1     1  UNL1        0.1005
     38 N         139.3165  139.8690  168.7432 N.1     1  UNL1       -0.1908
@<TRIPOS>BOND
     1     7     8    1
     2     1     8    1
     3     1     2    1
     4     2     3    1
     5     3    24    1
     6    24    25    1
     7    25    26    1
     8    26    27   ar
     9    27    28    2
    10    27    29   ar
    11    29    30   ar
    12    30    31   ar
    13    31    32   ar
    14    32    33   ar
    15    33    34   ar
    16    34    37    1
    17    37    38    3
    18    34    35   ar
    19    35    36   ar
    20     3     4    1
    21     4     5    1
    22     5     6    1
    23     6     9    1
    24     9    11    1
    25    11    12    1
    26    12    13   ar
    27    13    14   ar
    28    14    15   ar
    29    15    16   ar
    30    16    17   ar
    31    16    18    1
    32    18    19   am
    33    19    20    2
    34    19    21    1
    35    21    22    1
    36     6     1    1
    37    17    12   ar
    38    36    26   ar
    39    22    15    1
    40    36    31   ar
    41     9    10    1
    42    18    23    1
