@<TRIPOS>MOLECULE
*****
 36 39 0 0 0
SMALL
GASTEIGER

@<TRIPOS>ATOM
      1 C         141.9439  138.9675  158.3192 C.3     1  UNL1        0.0758
      2 C         141.9014  140.4042  157.8903 C.3     1  UNL1        0.0370
      3 C         142.6777  141.4374  158.6516 C.3     1  UNL1        0.0741
      4 N         143.4966  141.0340  159.8418 N.3     1  UNL1       -0.2688
      5 C         143.5392  139.5973  160.2707 C.3     1  UNL1        0.0741
      6 C         142.7629  138.5640  159.5094 C.3     1  UNL1        0.0370
      7 N         141.1143  135.8559  155.9996 N.am    1  UNL1       -0.2887
      8 C         141.8907  136.8893  156.7609 C.2     1  UNL1        0.3007
      9 O         143.3903  136.8777  156.7252 O.2     1  UNL1       -0.2528
     10 N         141.1676  137.9341  157.5579 N.am    1  UNL1       -0.2905
     11 H         140.1302  135.8635  156.0231 H       1  UNL1        0.1510
     12 H         140.1834  137.9417  157.5814 H       1  UNL1        0.1509
     13 C         142.4623  135.1703  153.8872 C.3     1  UNL1        0.0234
     14 C         141.8375  134.8110  155.2026 C.3     1  UNL1        0.0957
     15 C         141.9358  133.4069  155.7211 C.3     1  UNL1        0.1271
     16 N         143.2356  132.9002  156.2722 N.ar    1  UNL1       -0.3061
     17 C         143.8184  133.2417  157.6115 C.ar    1  UNL1        0.0981
     18 C         145.1238  132.5156  157.7477 C.ar    1  UNL1        0.1193
     19 N         145.3479  131.7253  156.4926 N.ar    1  UNL1       -0.2223
     20 C         144.1809  131.9630  155.5807 C.ar    1  UNL1        0.1786
     21 C         144.2730  142.0674  160.6031 C.3     1  UNL1        0.1007
     22 C         144.2882  142.0399  162.1027 C.ar    1  UNL1        0.0129
     23 C         145.4899  141.8010  162.9680 C.ar    1  UNL1        0.0176
     24 C         145.0488  141.8599  164.4005 C.ar    1  UNL1        0.0799
     25 N         143.5743  142.1351  164.4205 N.ar    1  UNL1       -0.3038
     26 C         143.1043  142.2463  163.0004 C.ar    1  UNL1        0.0772
     27 C         142.7200  142.2746  165.6455 C.ar    1  UNL1        0.0640
     28 C         141.2426  142.4943  165.5085 C.ar    1  UNL1        0.0175
     29 C         140.3883  142.6338  166.7335 C.ar    1  UNL1        0.0053
     30 C         141.0114  142.5536  168.0955 C.ar    1  UNL1        0.0715
     31 C         142.4889  142.3340  168.2326 C.ar    1  UNL1        0.0053
     32 C         143.3432  142.1945  167.0076 C.ar    1  UNL1        0.0175
     33 C         140.1571  142.6931  169.3205 C.3     1  UNL1        0.4186
     34 F         139.3027  142.8326  170.5455 F       1  UNL1       -0.1659
     35 F         140.5275  144.1437  169.4137 F       1  UNL1       -0.1659
     36 F         139.7866  141.2425  169.2274 F       1  UNL1       -0.1659
@<TRIPOS>BOND
     1    13    14    1
     2    14    15    1
     3    15    16    1
     4    16    17   ar
     5    17    18   ar
     6    18    19   ar
     7    19    20   ar
     8    14     7    1
     9     7     8   am
    10     8     9    2
    11     8    10   am
    12    10     1    1
    13     1     2    1
    14     2     3    1
    15     3     4    1
    16     4    21    1
    17    21    22    1
    18    22    23   ar
    19    23    24   ar
    20    24    25   ar
    21    25    27    1
    22    27    28   ar
    23    28    29   ar
    24    29    30   ar
    25    30    33    1
    26    33    34    1
    27    33    35    1
    28    33    36    1
    29    30    31   ar
    30    31    32   ar
    31    25    26   ar
    32     4     5    1
    33     5     6    1
    34    20    16   ar
    35     6     1    1
    36    26    22   ar
    37    32    27   ar
    38     7    11    1
    39    10    12    1
@<TRIPOS>MOLECULE
*****
 36 39 0 0 0
SMALL
GASTEIGER

@<TRIPOS>ATOM
      1 C         138.6875  139.8035  159.3596 C.3     1  UNL1        0.0758
      2 C         138.1854  139.1653  160.6207 C.3     1  UNL1        0.0370
      3 C         137.7440  140.0217  161.7704 C.3     1  UNL1        0.0741
      4 N         137.8047  141.5163  161.6589 N.3     1  UNL1       -0.2688
      5 C         138.3068  142.1545  160.3977 C.3     1  UNL1        0.0741
      6 C         138.7482  141.2981  159.2481 C.3     1  UNL1        0.0370
      7 N         141.0284  137.8041  156.8549 N.am    1  UNL1       -0.2887
      8 C         140.5869  138.6605  158.0047 C.2     1  UNL1        0.3007
      9 O         141.6035  139.2302  158.9491 O.2     1  UNL1       -0.2528
     10 N         139.1290  138.9471  158.2099 N.am    1  UNL1       -0.2905
     11 H         140.3612  137.4302  156.2350 H       1  UNL1        0.1510
     12 H         138.4618  138.5732  157.5900 H       1  UNL1        0.1509
     13 C         143.3372  138.4773  155.8722 C.3     1  UNL1        0.0234
     14 C         142.4863  137.5174  156.6497 C.3     1  UNL1        0.0957
     15 C         143.0934  136.2709  157.2220 C.3     1  UNL1        0.1271
     16 N         142.6568  134.9260  156.7216 N.ar    1  UNL1       -0.3061
     17 C         141.6990  134.6727  155.5953 C.ar    1  UNL1        0.0981
     18 C         141.5515  133.1884  155.4371 C.ar    1  UNL1        0.1193
     19 N         142.4181  132.5242  156.4657 N.ar    1  UNL1       -0.2223
     20 C         143.1012  133.5981  157.2595 C.ar    1  UNL1        0.1786
     21 C         137.3633  142.3727  162.8086 C.3     1  UNL1        0.1007
     22 C         138.3108  142.6633  163.9345 C.ar    1  UNL1        0.0129
     23 C         138.8302  144.0159  164.3227 C.ar    1  UNL1        0.0176
     24 C         139.7458  143.8410  165.4979 C.ar    1  UNL1        0.0799
     25 N         139.7922  142.3803  165.8360 N.ar    1  UNL1       -0.3038
     26 C         138.9054  141.6525  164.8697 C.ar    1  UNL1        0.0772
     27 C         140.5862  141.7569  166.9455 C.ar    1  UNL1        0.0640
     28 C         139.9899  140.6508  167.7647 C.ar    1  UNL1        0.0175
     29 C         140.7839  140.0274  168.8742 C.ar    1  UNL1        0.0053
     30 C         142.1740  140.5101  169.1646 C.ar    1  UNL1        0.0715
     31 C         142.7703  141.6162  168.3455 C.ar    1  UNL1        0.0053
     32 C         141.9764  142.2396  167.2360 C.ar    1  UNL1        0.0175
     33 C         142.9679  139.8867  170.2741 C.3     1  UNL1        0.4186
     34 F         143.7619  139.2634  171.3837 F       1  UNL1       -0.1659
     35 F         142.0630  138.6906  170.2495 F       1  UNL1       -0.1659
     36 F         143.8728  141.0829  170.2987 F       1  UNL1       -0.1659
@<TRIPOS>BOND
     1    13    14    1
     2    14    15    1
     3    15    16    1
     4    16    17   ar
     5    17    18   ar
     6    18    19   ar
     7    19    20   ar
     8    14     7    1
     9     7     8   am
    10     8     9    2
    11     8    10   am
    12    10     1    1
    13     1     2    1
    14     2     3    1
    15     3     4    1
    16     4    21    1
    17    21    22    1
    18    22    23   ar
    19    23    24   ar
    20    24    25   ar
    21    25    27    1
    22    27    28   ar
    23    28    29   ar
    24    29    30   ar
    25    30    33    1
    26    33    34    1
    27    33    35    1
    28    33    36    1
    29    30    31   ar
    30    31    32   ar
    31    25    26   ar
    32     4     5    1
    33     5     6    1
    34    20    16   ar
    35     6     1    1
    36    26    22   ar
    37    32    27   ar
    38     7    11    1
    39    10    12    1
@<TRIPOS>MOLECULE
*****
 36 39 0 0 0
SMALL
GASTEIGER

@<TRIPOS>ATOM
      1 C         142.5053  138.4056  159.3367 C.3     1  UNL1        0.0758
      2 C         143.0608  137.8760  160.6254 C.3     1  UNL1        0.0370
      3 C         142.1456  137.6110  161.7839 C.3     1  UNL1        0.0741
      4 N         140.6749  137.8757  161.6537 N.3     1  UNL1       -0.2688
      5 C         140.1194  138.4053  160.3650 C.3     1  UNL1        0.0741
      6 C         141.0345  138.6703  159.2065 C.3     1  UNL1        0.0370
      7 N         144.7431  140.3415  156.6918 N.am    1  UNL1       -0.2887
      8 C         143.8279  140.0765  157.8504 C.2     1  UNL1        0.3007
      9 O         143.3202  141.2175  158.6813 O.2     1  UNL1       -0.2528
     10 N         143.4204  138.6706  158.1781 N.am    1  UNL1       -0.2905
     11 H         145.0763  139.5926  156.1464 H       1  UNL1        0.1510
     12 H         143.7537  137.9217  157.6327 H       1  UNL1        0.1509
     13 C         144.1787  142.6730  155.6944 C.3     1  UNL1        0.0234
     14 C         145.1505  141.7473  156.3642 C.3     1  UNL1        0.0957
     15 C         146.5298  142.2275  156.7062 C.3     1  UNL1        0.1271
     16 N         147.5555  142.3947  155.6246 N.ar    1  UNL1       -0.3061
     17 C         148.8592  141.6596  155.5247 C.ar    1  UNL1        0.0981
     18 C         149.5671  142.1369  154.2914 C.ar    1  UNL1        0.1193
     19 N         148.7008  143.1669  153.6290 N.ar    1  UNL1       -0.2223
     20 C         147.4576  143.3262  154.4530 C.ar    1  UNL1        0.1786
     21 C         139.7597  137.6107  162.8123 C.3     1  UNL1        0.1007
     22 C         139.5958  138.6415  163.8896 C.ar    1  UNL1        0.0129
     23 C         138.3324  139.3802  164.2181 C.ar    1  UNL1        0.0176
     24 C         138.6222  140.3098  165.3591 C.ar    1  UNL1        0.0799
     25 N         140.0649  140.1456  165.7357 N.ar    1  UNL1       -0.3038
     26 C         140.6666  139.1146  164.8275 C.ar    1  UNL1        0.0772
     27 C         140.7803  140.8831  166.8286 C.ar    1  UNL1        0.0640
     28 C         140.0959  141.1279  168.1407 C.ar    1  UNL1        0.0175
     29 C         140.8113  141.8653  169.2336 C.ar    1  UNL1        0.0053
     30 C         142.2109  142.3579  169.0145 C.ar    1  UNL1        0.0715
     31 C         142.8954  142.1131  167.7024 C.ar    1  UNL1        0.0053
     32 C         142.1800  141.3757  166.6095 C.ar    1  UNL1        0.0175
     33 C         142.9263  143.0953  170.1074 C.3     1  UNL1        0.4186
     34 F         143.6416  143.8328  171.2003 F       1  UNL1       -0.1659
     35 F         144.1024  142.1764  169.9576 F       1  UNL1       -0.1659
     36 F         141.7501  144.0143  170.2572 F       1  UNL1       -0.1659
@<TRIPOS>BOND
     1    13    14    1
     2    14    15    1
     3    15    16    1
     4    16    17   ar
     5    17    18   ar
     6    18    19   ar
     7    19    20   ar
     8    14     7    1
     9     7     8   am
    10     8     9    2
    11     8    10   am
    12    10     1    1
    13     1     2    1
    14     2     3    1
    15     3     4    1
    16     4    21    1
    17    21    22    1
    18    22    23   ar
    19    23    24   ar
    20    24    25   ar
    21    25    27    1
    22    27    28   ar
    23    28    29   ar
    24    29    30   ar
    25    30    33    1
    26    33    34    1
    27    33    35    1
    28    33    36    1
    29    30    31   ar
    30    31    32   ar
    31    25    26   ar
    32     4     5    1
    33     5     6    1
    34    20    16   ar
    35     6     1    1
    36    26    22   ar
    37    32    27   ar
    38     7    11    1
    39    10    12    1
@<TRIPOS>MOLECULE
*****
 36 39 0 0 0
SMALL
GASTEIGER

@<TRIPOS>ATOM
      1 C         139.5971  138.9282  157.7646 C.3     1  UNL1        0.0758
      2 C         139.5322  138.7043  159.2463 C.3     1  UNL1        0.0370
      3 C         139.6746  139.8639  160.1870 C.3     1  UNL1        0.0741
      4 N         139.8817  141.2475  159.6459 N.3     1  UNL1       -0.2688
      5 C         139.9466  141.4715  158.1642 C.3     1  UNL1        0.0741
      6 C         139.8042  140.3118  157.2235 C.3     1  UNL1        0.0370
      7 N         140.5067  135.7671  155.5441 N.am    1  UNL1       -0.2887
      8 C         140.6491  136.9268  156.4849 C.2     1  UNL1        0.3007
      9 O         141.9858  137.2446  157.0866 O.2     1  UNL1       -0.2528
     10 N         139.4547  137.7686  156.8238 N.am    1  UNL1       -0.2905
     11 H         139.6294  135.5585  155.1491 H       1  UNL1        0.1510
     12 H         138.5774  137.5599  156.4288 H       1  UNL1        0.1509
     13 C         142.7930  135.4856  154.3428 C.3     1  UNL1        0.0234
     14 C         141.7011  134.9254  155.2052 C.3     1  UNL1        0.0957
     15 C         141.8034  133.5234  155.7286 C.3     1  UNL1        0.1271
     16 N         143.0835  133.0453  156.3472 N.ar    1  UNL1       -0.3061
     17 C         143.6529  133.5003  157.6582 C.ar    1  UNL1        0.0981
     18 C         144.9403  132.7646  157.8847 C.ar    1  UNL1        0.1193
     19 N         145.1666  131.8549  156.7136 N.ar    1  UNL1       -0.2223
     20 C         144.0191  132.0285  155.7634 C.ar    1  UNL1        0.1786
     21 C         140.0241  142.4072  160.5867 C.3     1  UNL1        0.1007
     22 C         139.4500  142.3256  161.9701 C.ar    1  UNL1        0.0129
     23 C         138.0183  142.5675  162.3462 C.ar    1  UNL1        0.0176
     24 C         137.8903  142.3791  163.8288 C.ar    1  UNL1        0.0799
     25 N         139.2430  142.0208  164.3690 N.ar    1  UNL1       -0.3038
     26 C         140.2070  141.9877  163.2202 C.ar    1  UNL1        0.0772
     27 C         139.5737  141.7441  165.8057 C.ar    1  UNL1        0.0640
     28 C         140.2311  142.8022  166.6412 C.ar    1  UNL1        0.0175
     29 C         140.5618  142.5255  168.0779 C.ar    1  UNL1        0.0053
     30 C         140.2350  141.1908  168.6791 C.ar    1  UNL1        0.0715
     31 C         139.5775  140.1326  167.8436 C.ar    1  UNL1        0.0053
     32 C         139.2468  140.4093  166.4069 C.ar    1  UNL1        0.0175
     33 C         140.5656  140.9141  170.1157 C.3     1  UNL1        0.4186
     34 F         140.8964  140.6375  171.5525 F       1  UNL1       -0.1659
     35 F         139.1923  140.3474  170.3227 F       1  UNL1       -0.1659
     36 F         141.9390  141.4809  169.9089 F       1  UNL1       -0.1659
@<TRIPOS>BOND
     1    13    14    1
     2    14    15    1
     3    15    16    1
     4    16    17   ar
     5    17    18   ar
     6    18    19   ar
     7    19    20   ar
     8    14     7    1
     9     7     8   am
    10     8     9    2
    11     8    10   am
    12    10     1    1
    13     1     2    1
    14     2     3    1
    15     3     4    1
    16     4    21    1
    17    21    22    1
    18    22    23   ar
    19    23    24   ar
    20    24    25   ar
    21    25    27    1
    22    27    28   ar
    23    28    29   ar
    24    29    30   ar
    25    30    33    1
    26    33    34    1
    27    33    35    1
    28    33    36    1
    29    30    31   ar
    30    31    32   ar
    31    25    26   ar
    32     4     5    1
    33     5     6    1
    34    20    16   ar
    35     6     1    1
    36    26    22   ar
    37    32    27   ar
    38     7    11    1
    39    10    12    1
@<TRIPOS>MOLECULE
*****
 36 39 0 0 0
SMALL
GASTEIGER

@<TRIPOS>ATOM
      1 C         139.5397  139.0550  158.4879 C.3     1  UNL1        0.0758
      2 C         140.5732  139.2170  159.5628 C.3     1  UNL1        0.0370
      3 C         140.6692  140.5067  160.3226 C.3     1  UNL1        0.0741
      4 N         139.7317  141.6345  160.0074 N.3     1  UNL1       -0.2688
      5 C         138.6982  141.4725  158.9325 C.3     1  UNL1        0.0741
      6 C         138.6022  140.1827  158.1727 C.3     1  UNL1        0.0370
      7 N         140.1215  136.2949  155.6961 N.am    1  UNL1       -0.2887
      8 C         140.2175  137.5847  156.4559 C.2     1  UNL1        0.3007
      9 O         141.0875  138.6940  155.9435 O.2     1  UNL1       -0.2528
     10 N         139.4436  137.7652  157.7281 N.am    1  UNL1       -0.2905
     11 H         139.5504  135.5669  156.0324 H       1  UNL1        0.1510
     12 H         138.8726  137.0371  158.0644 H       1  UNL1        0.1509
     13 C         140.3064  136.5596  153.1182 C.3     1  UNL1        0.0234
     14 C         140.8954  136.1145  154.4239 C.3     1  UNL1        0.0957
     15 C         142.2583  135.4889  154.4574 C.3     1  UNL1        0.1271
     16 N         142.6241  134.5470  155.5660 N.ar    1  UNL1       -0.3061
     17 C         143.6577  134.7912  156.6253 C.ar    1  UNL1        0.0981
     18 C         143.6930  133.5907  157.5239 C.ar    1  UNL1        0.1193
     19 N         142.6812  132.6045  157.0200 N.ar    1  UNL1       -0.2223
     20 C         142.0206  133.1956  155.8100 C.ar    1  UNL1        0.1786
     21 C         139.8278  142.9243  160.7673 C.3     1  UNL1        0.1007
     22 C         140.3329  142.9269  162.1796 C.ar    1  UNL1        0.0129
     23 C         141.4764  143.7428  162.7055 C.ar    1  UNL1        0.0176
     24 C         141.6334  143.4342  164.1650 C.ar    1  UNL1        0.0799
     25 N         140.5869  142.4275  164.5412 N.ar    1  UNL1       -0.3038
     26 C         139.7831  142.1140  163.3141 C.ar    1  UNL1        0.0772
     27 C         140.3804  141.8379  165.9049 C.ar    1  UNL1        0.0640
     28 C         139.6409  140.5419  166.0575 C.ar    1  UNL1        0.0175
     29 C         139.4345  139.9523  167.4212 C.ar    1  UNL1        0.0053
     30 C         139.9674  140.6588  168.6323 C.ar    1  UNL1        0.0715
     31 C         140.7068  141.9549  168.4797 C.ar    1  UNL1        0.0053
     32 C         140.9133  142.5445  167.1160 C.ar    1  UNL1        0.0175
     33 C         139.7609  140.0692  169.9960 C.3     1  UNL1        0.4186
     34 F         139.5545  139.4796  171.3597 F       1  UNL1       -0.1659
     35 F         138.4163  140.7290  170.0777 F       1  UNL1       -0.1659
     36 F         141.1056  139.4093  169.9144 F       1  UNL1       -0.1659
@<TRIPOS>BOND
     1    13    14    1
     2    14    15    1
     3    15    16    1
     4    16    17   ar
     5    17    18   ar
     6    18    19   ar
     7    19    20   ar
     8    14     7    1
     9     7     8   am
    10     8     9    2
    11     8    10   am
    12    10     1    1
    13     1     2    1
    14     2     3    1
    15     3     4    1
    16     4    21    1
    17    21    22    1
    18    22    23   ar
    19    23    24   ar
    20    24    25   ar
    21    25    27    1
    22    27    28   ar
    23    28    29   ar
    24    29    30   ar
    25    30    33    1
    26    33    34    1
    27    33    35    1
    28    33    36    1
    29    30    31   ar
    30    31    32   ar
    31    25    26   ar
    32     4     5    1
    33     5     6    1
    34    20    16   ar
    35     6     1    1
    36    26    22   ar
    37    32    27   ar
    38     7    11    1
    39    10    12    1
@<TRIPOS>MOLECULE
*****
 36 39 0 0 0
SMALL
GASTEIGER

@<TRIPOS>ATOM
      1 C         143.0683  139.7010  158.0162 C.3     1  UNL1        0.0758
      2 C         142.3369  140.8564  157.3997 C.3     1  UNL1        0.0370
      3 C         141.6749  141.8783  158.2756 C.3     1  UNL1        0.0741
      4 N         141.7442  141.7449  159.7681 N.3     1  UNL1       -0.2688
      5 C         142.4756  140.5895  160.3846 C.3     1  UNL1        0.0741
      6 C         143.1376  139.5676  159.5087 C.3     1  UNL1        0.0370
      7 N         143.6040  136.4926  155.7424 N.am    1  UNL1       -0.2887
      8 C         142.9418  137.5147  156.6184 C.2     1  UNL1        0.3007
      9 O         141.4912  137.3723  156.9723 O.2     1  UNL1       -0.2528
     10 N         143.7304  138.6790  157.1403 N.am    1  UNL1       -0.2905
     11 H         144.5561  136.5861  155.5101 H       1  UNL1        0.1510
     12 H         144.6825  138.7724  156.9080 H       1  UNL1        0.1509
     13 C         142.3069  135.3392  153.8094 C.3     1  UNL1        0.0234
     14 C         142.8154  135.3283  155.2205 C.3     1  UNL1        0.0957
     15 C         142.5353  134.1532  156.1096 C.3     1  UNL1        0.1271
     16 N         143.6504  133.2335  156.5107 N.ar    1  UNL1       -0.3061
     17 C         144.3579  133.2301  157.8333 C.ar    1  UNL1        0.0981
     18 C         145.3985  132.1503  157.7995 C.ar    1  UNL1        0.1193
     19 N         145.3342  131.4863  156.4560 N.ar    1  UNL1       -0.2223
     20 C         144.2538  132.1558  155.6594 C.ar    1  UNL1        0.1786
     21 C         141.0821  142.7669  160.6440 C.3     1  UNL1        0.1007
     22 C         140.2879  142.3291  161.8388 C.ar    1  UNL1        0.0129
     23 C         138.8224  142.0099  161.8546 C.ar    1  UNL1        0.0176
     24 C         138.4486  141.6173  163.2532 C.ar    1  UNL1        0.0799
     25 N         139.6831  141.6938  164.1019 N.ar    1  UNL1       -0.3038
     26 C         140.8199  142.1338  163.2277 C.ar    1  UNL1        0.0772
     27 C         139.7662  141.3846  165.5673 C.ar    1  UNL1        0.0640
     28 C         140.4538  142.3396  166.4974 C.ar    1  UNL1        0.0175
     29 C         140.5369  142.0304  167.9629 C.ar    1  UNL1        0.0053
     30 C         139.9325  140.7663  168.4981 C.ar    1  UNL1        0.0715
     31 C         139.2449  139.8113  167.5680 C.ar    1  UNL1        0.0053
     32 C         139.1618  140.1205  166.1026 C.ar    1  UNL1        0.0175
     33 C         140.0156  140.4572  169.9635 C.3     1  UNL1        0.4186
     34 F         140.0988  140.1479  171.4290 F       1  UNL1       -0.1659
     35 F         139.0397  141.5593  170.2514 F       1  UNL1       -0.1659
     36 F         140.9915  139.3549  169.6757 F       1  UNL1       -0.1659
@<TRIPOS>BOND
     1    13    14    1
     2    14    15    1
     3    15    16    1
     4    16    17   ar
     5    17    18   ar
     6    18    19   ar
     7    19    20   ar
     8    14     7    1
     9     7     8   am
    10     8     9    2
    11     8    10   am
    12    10     1    1
    13     1     2    1
    14     2     3    1
    15     3     4    1
    16     4    21    1
    17    21    22    1
    18    22    23   ar
    19    23    24   ar
    20    24    25   ar
    21    25    27    1
    22    27    28   ar
    23    28    29   ar
    24    29    30   ar
    25    30    33    1
    26    33    34    1
    27    33    35    1
    28    33    36    1
    29    30    31   ar
    30    31    32   ar
    31    25    26   ar
    32     4     5    1
    33     5     6    1
    34    20    16   ar
    35     6     1    1
    36    26    22   ar
    37    32    27   ar
    38     7    11    1
    39    10    12    1
@<TRIPOS>MOLECULE
*****
 36 39 0 0 0
SMALL
GASTEIGER

@<TRIPOS>ATOM
      1 C         138.6202  140.7267  158.7835 C.3     1  UNL1        0.0758
      2 C         140.0380  140.6104  158.3078 C.3     1  UNL1        0.0370
      3 C         140.9964  139.7037  159.0213 C.3     1  UNL1        0.0741
      4 N         140.5371  138.9134  160.2106 N.3     1  UNL1       -0.2688
      5 C         139.1194  139.0297  160.6863 C.3     1  UNL1        0.0741
      6 C         138.1609  139.9364  159.9727 C.3     1  UNL1        0.0370
      7 N         136.1271  142.1308  156.0332 N.am    1  UNL1       -0.2887
      8 C         137.0856  141.2240  156.7468 C.2     1  UNL1        0.3007
      9 O         137.4681  139.9079  156.1372 O.2     1  UNL1       -0.2528
     10 N         137.6617  141.6334  158.0699 N.am    1  UNL1       -0.2905
     11 H         135.8760  142.9946  156.4333 H       1  UNL1        0.1510
     12 H         137.4106  142.4973  158.4699 H       1  UNL1        0.1509
     13 C         136.4236  141.6876  153.4905 C.3     1  UNL1        0.0234
     14 C         135.5511  141.7214  154.7102 C.3     1  UNL1        0.0957
     15 C         134.1026  141.3457  154.6067 C.3     1  UNL1        0.1271
     16 N         133.4963  140.4120  155.6119 N.ar    1  UNL1       -0.3061
     17 C         132.1978  140.6167  156.3345 C.ar    1  UNL1        0.0981
     18 C         131.9810  139.4408  157.2402 C.ar    1  UNL1        0.1193
     19 N         133.1455  138.5094  157.0774 N.ar    1  UNL1       -0.2223
     20 C         134.0820  139.1096  156.0711 C.ar    1  UNL1        0.1786
     21 C         141.4957  138.0066  160.9242 C.3     1  UNL1        0.1007
     22 C         142.3270  138.5350  162.0554 C.ar    1  UNL1        0.0129
     23 C         143.8254  138.5865  162.0992 C.ar    1  UNL1        0.0176
     24 C         144.2304  139.1879  163.4123 C.ar    1  UNL1        0.0799
     25 N         142.9821  139.5081  164.1801 N.ar    1  UNL1       -0.3038
     26 C         141.8058  139.1046  163.3415 C.ar    1  UNL1        0.0772
     27 C         142.9210  140.1238  165.5466 C.ar    1  UNL1        0.0640
     28 C         143.0549  141.6091  165.7067 C.ar    1  UNL1        0.0175
     29 C         142.9938  142.2247  167.0731 C.ar    1  UNL1        0.0053
     30 C         142.7988  141.3550  168.2795 C.ar    1  UNL1        0.0715
     31 C         142.6649  139.8696  168.1195 C.ar    1  UNL1        0.0053
     32 C         142.7260  139.2540  166.7530 C.ar    1  UNL1        0.0175
     33 C         142.7377  141.9707  169.6459 C.3     1  UNL1        0.4186
     34 F         142.6766  142.5863  171.0125 F       1  UNL1       -0.1659
     35 F         141.9180  143.1019  169.0996 F       1  UNL1       -0.1659
     36 F         143.5574  140.8394  170.1923 F       1  UNL1       -0.1659
@<TRIPOS>BOND
     1    13    14    1
     2    14    15    1
     3    15    16    1
     4    16    17   ar
     5    17    18   ar
     6    18    19   ar
     7    19    20   ar
     8    14     7    1
     9     7     8   am
    10     8     9    2
    11     8    10   am
    12    10     1    1
    13     1     2    1
    14     2     3    1
    15     3     4    1
    16     4    21    1
    17    21    22    1
    18    22    23   ar
    19    23    24   ar
    20    24    25   ar
    21    25    27    1
    22    27    28   ar
    23    28    29   ar
    24    29    30   ar
    25    30    33    1
    26    33    34    1
    27    33    35    1
    28    33    36    1
    29    30    31   ar
    30    31    32   ar
    31    25    26   ar
    32     4     5    1
    33     5     6    1
    34    20    16   ar
    35     6     1    1
    36    26    22   ar
    37    32    27   ar
    38     7    11    1
    39    10    12    1
@<TRIPOS>MOLECULE
*****
 36 39 0 0 0
SMALL
GASTEIGER

@<TRIPOS>ATOM
      1 C         139.0107  140.3921  161.3328 C.3     1  UNL1        0.0758
      2 C         138.7350  139.1443  160.5474 C.3     1  UNL1        0.0370
      3 C         139.4464  138.9026  159.2492 C.3     1  UNL1        0.0741
      4 N         140.4336  139.9088  158.7363 N.3     1  UNL1       -0.2688
      5 C         140.7094  141.1566  159.5217 C.3     1  UNL1        0.0741
      6 C         139.9979  141.3983  160.8199 C.3     1  UNL1        0.0370
      7 N         138.0226  140.1515  165.1689 N.am    1  UNL1       -0.2887
      8 C         138.7340  139.9098  163.8707 C.2     1  UNL1        0.3007
      9 O         139.8803  138.9440  163.8121 O.2     1  UNL1       -0.2528
     10 N         138.2993  140.6338  162.6311 N.am    1  UNL1       -0.2905
     11 H         137.2703  140.7854  165.2074 H       1  UNL1        0.1510
     12 H         137.5470  141.2677  162.6695 H       1  UNL1        0.1509
     13 C         137.5921  138.3485  166.9893 C.3     1  UNL1        0.0234
     14 C         138.4573  139.4275  166.4086 C.3     1  UNL1        0.0957
     15 C         139.7573  139.7823  167.0674 C.3     1  UNL1        0.1271
     16 N         139.7710  140.7008  168.2532 N.ar    1  UNL1       -0.3061
     17 C         140.4269  142.0482  168.3172 C.ar    1  UNL1        0.0981
     18 C         140.1924  142.6133  169.6868 C.ar    1  UNL1        0.1193
     19 N         139.3916  141.6151  170.4693 N.ar    1  UNL1       -0.2223
     20 C         139.1311  140.4331  169.5833 C.ar    1  UNL1        0.1786
     21 C         141.1451  139.6671  157.4381 C.3     1  UNL1        0.1007
     22 C         141.1087  138.3079  156.8046 C.ar    1  UNL1        0.0129
     23 C         140.0615  137.8054  155.8554 C.ar    1  UNL1        0.0176
     24 C         140.4186  136.3996  155.4732 C.ar    1  UNL1        0.0799
     25 N         141.6865  136.0332  156.1863 N.ar    1  UNL1       -0.3038
     26 C         142.1129  137.2126  157.0091 C.ar    1  UNL1        0.0772
     27 C         142.4022  134.7182  156.0929 C.ar    1  UNL1        0.0640
     28 C         143.6020  134.4546  156.9536 C.ar    1  UNL1        0.0175
     29 C         144.3177  133.1397  156.8602 C.ar    1  UNL1        0.0053
     30 C         143.8336  132.0884  155.9061 C.ar    1  UNL1        0.0715
     31 C         142.6337  132.3520  155.0454 C.ar    1  UNL1        0.0053
     32 C         141.9180  133.6669  155.1388 C.ar    1  UNL1        0.0175
     33 C         144.5493  130.7735  155.8127 C.3     1  UNL1        0.4186
     34 F         145.2650  129.4586  155.7192 F       1  UNL1       -0.1659
     35 F         144.6873  130.7426  157.3060 F       1  UNL1       -0.1659
     36 F         144.4113  130.8044  154.3193 F       1  UNL1       -0.1659
@<TRIPOS>BOND
     1    13    14    1
     2    14    15    1
     3    15    16    1
     4    16    17   ar
     5    17    18   ar
     6    18    19   ar
     7    19    20   ar
     8    14     7    1
     9     7     8   am
    10     8     9    2
    11     8    10   am
    12    10     1    1
    13     1     2    1
    14     2     3    1
    15     3     4    1
    16     4    21    1
    17    21    22    1
    18    22    23   ar
    19    23    24   ar
    20    24    25   ar
    21    25    27    1
    22    27    28   ar
    23    28    29   ar
    24    29    30   ar
    25    30    33    1
    26    33    34    1
    27    33    35    1
    28    33    36    1
    29    30    31   ar
    30    31    32   ar
    31    25    26   ar
    32     4     5    1
    33     5     6    1
    34    20    16   ar
    35     6     1    1
    36    26    22   ar
    37    32    27   ar
    38     7    11    1
    39    10    12    1
@<TRIPOS>MOLECULE
*****
 36 39 0 0 0
SMALL
GASTEIGER

@<TRIPOS>ATOM
      1 C         138.5434  141.5894  158.5578 C.3     1  UNL1        0.0758
      2 C         138.1099  140.3551  159.2916 C.3     1  UNL1        0.0370
      3 C         139.1165  139.5399  160.0481 C.3     1  UNL1        0.0741
      4 N         140.5566  139.9589  160.0707 N.3     1  UNL1       -0.2688
      5 C         140.9901  141.1932  159.3368 C.3     1  UNL1        0.0741
      6 C         139.9835  142.0084  158.5804 C.3     1  UNL1        0.0370
      7 N         136.2593  142.9242  155.5995 N.am    1  UNL1       -0.2887
      8 C         137.2659  142.1089  156.3560 C.2     1  UNL1        0.3007
      9 O         138.0014  140.9979  155.6671 O.2     1  UNL1       -0.2528
     10 N         137.5369  142.4047  157.8013 N.am    1  UNL1       -0.2905
     11 H         135.7765  143.6534  156.0517 H       1  UNL1        0.1510
     12 H         137.0541  143.1339  158.2535 H       1  UNL1        0.1509
     13 C         136.6055  143.4811  153.0856 C.3     1  UNL1        0.0234
     14 C         135.9883  142.6284  154.1542 C.3     1  UNL1        0.0957
     15 C         135.1000  141.4799  153.7774 C.3     1  UNL1        0.1271
     16 N         134.2509  140.8150  154.8199 N.ar    1  UNL1       -0.3061
     17 C         132.9783  141.3586  155.3986 C.ar    1  UNL1        0.0981
     18 C         132.4662  140.3694  156.4032 C.ar    1  UNL1        0.1193
     19 N         133.4224  139.2144  156.4454 N.ar    1  UNL1       -0.2223
     20 C         134.5254  139.4898  155.4669 C.ar    1  UNL1        0.1786
     21 C         141.5631  139.1437  160.8271 C.3     1  UNL1        0.1007
     22 C         141.4456  138.9996  162.3155 C.ar    1  UNL1        0.0129
     23 C         141.6360  137.7333  163.0966 C.ar    1  UNL1        0.0176
     24 C         141.4251  138.0476  164.5480 C.ar    1  UNL1        0.0799
     25 N         141.1042  139.5083  164.6640 N.ar    1  UNL1       -0.3038
     26 C         141.1169  140.0967  163.2843 C.ar    1  UNL1        0.0772
     27 C         140.8205  140.2504  165.9364 C.ar    1  UNL1        0.0640
     28 C         139.9313  139.6395  166.9785 C.ar    1  UNL1        0.0175
     29 C         139.6476  140.3815  168.2509 C.ar    1  UNL1        0.0053
     30 C         140.2530  141.7344  168.4811 C.ar    1  UNL1        0.0715
     31 C         141.1423  142.3453  167.4389 C.ar    1  UNL1        0.0053
     32 C         141.4260  141.6033  166.1666 C.ar    1  UNL1        0.0175
     33 C         139.9693  142.4764  169.7534 C.3     1  UNL1        0.4186
     34 F         139.6855  143.2184  171.0258 F       1  UNL1       -0.1659
     35 F         140.9547  143.5351  169.3557 F       1  UNL1       -0.1659
     36 F         138.9839  141.4177  170.1512 F       1  UNL1       -0.1659
@<TRIPOS>BOND
     1    13    14    1
     2    14    15    1
     3    15    16    1
     4    16    17   ar
     5    17    18   ar
     6    18    19   ar
     7    19    20   ar
     8    14     7    1
     9     7     8   am
    10     8     9    2
    11     8    10   am
    12    10     1    1
    13     1     2    1
    14     2     3    1
    15     3     4    1
    16     4    21    1
    17    21    22    1
    18    22    23   ar
    19    23    24   ar
    20    24    25   ar
    21    25    27    1
    22    27    28   ar
    23    28    29   ar
    24    29    30   ar
    25    30    33    1
    26    33    34    1
    27    33    35    1
    28    33    36    1
    29    30    31   ar
    30    31    32   ar
    31    25    26   ar
    32     4     5    1
    33     5     6    1
    34    20    16   ar
    35     6     1    1
    36    26    22   ar
    37    32    27   ar
    38     7    11    1
    39    10    12    1
