@<TRIPOS>MOLECULE
*****
 34 38 0 0 0
SMALL
GASTEIGER

@<TRIPOS>ATOM
      1 C         139.5576  142.5194  158.4580 C.3     1  UNL1        0.1531
      2 C         138.6996  142.3843  159.6810 C.3     1  UNL1        0.1067
      3 N         138.9507  141.2707  160.6539 N.3     1  UNL1       -0.2665
      4 C         138.0927  141.1355  161.8770 C.3     1  UNL1        0.0940
      5 C         138.3437  140.0219  162.8499 C.3     1  UNL1        0.1107
      6 N         139.4528  139.0433  162.6000 N.am    1  UNL1       -0.2763
      7 C         139.7038  137.9297  163.5730 C.2     1  UNL1        0.2318
      8 O         140.8128  136.9511  163.3231 O.2     1  UNL1       -0.2744
      9 C         140.3107  139.1784  161.3771 C.3     1  UNL1        0.1119
     10 C         140.0597  140.2921  160.4040 C.3     1  UNL1        0.1075
     11 C         140.9177  140.4272  159.1811 C.3     1  UNL1        0.1601
     12 O         140.6666  141.5408  158.2081 O.3     1  UNL1       -0.3489
     13 C         137.6732  142.1075  156.1603 C.3     1  UNL1        0.0316
     14 C         138.3644  143.4271  156.3361 C.ar    1  UNL1       -0.0117
     15 C         139.3065  143.6331  157.4850 C.ar    1  UNL1        0.0027
     16 C         139.9977  144.9527  157.6609 C.ar    1  UNL1        0.0001
     17 C         139.7467  146.0663  156.6879 C.ar    1  UNL1        0.0301
     18 C         138.8045  145.8604  155.5390 C.ar    1  UNL1        0.1493
     19 F         138.5535  146.9741  154.5660 F       1  UNL1       -0.2035
     20 C         138.1133  144.5408  155.3631 C.ar    1  UNL1        0.0916
     21 C         137.1712  144.3348  154.2142 C.1     1  UNL1        0.1024
     22 N         136.2291  144.1289  153.0654 N.1     1  UNL1       -0.1908
     23 C         138.8459  137.7946  164.7960 C.3     1  UNL1        0.1325
     24 C         139.1754  138.5758  166.0333 C.ar    1  UNL1        0.0874
     25 C         138.1528  138.7253  167.1205 C.ar    1  UNL1        0.1157
     26 N         138.4823  139.5065  168.3579 N.ar    1  UNL1       -0.2223
     27 C         139.8344  140.1383  168.5080 C.ar    1  UNL1        0.1865
     28 C         140.8570  139.9889  167.4209 C.ar    1  UNL1        0.1373
     29 N         140.5275  139.2076  166.1835 N.ar    1  UNL1       -0.2429
     30 N         140.1640  140.9196  169.7454 N.ar    1  UNL1       -0.1693
     31 C         141.4044  140.7735  170.5761 C.ar    1  UNL1        0.2273
     32 N         141.3180  141.7478  171.7134 N.ar    1  UNL1       -0.1044
     33 N         140.0241  142.4960  171.5856 N.ar    1  UNL1       -0.0222
     34 N         139.3110  141.9841  170.3693 N.ar    1  UNL1       -0.0371
@<TRIPOS>BOND
     1    13    14    1
     2    14    15   ar
     3     1    15    1
     4     1     2    1
     5     2     3    1
     6     3     4    1
     7     4     5    1
     8     5     6    1
     9     6     7   am
    10     7     8    2
    11     7    23    1
    12    23    24    1
    13    24    25   ar
    14    25    26   ar
    15    26    27   ar
    16    27    30    1
    17    30    31   ar
    18    31    32   ar
    19    32    33   ar
    20    33    34   ar
    21    27    28   ar
    22    28    29   ar
    23     6     9    1
    24    10     9    1
    25    10    11    1
    26    11    12    1
    27    15    16   ar
    28    16    17   ar
    29    17    18   ar
    30    18    19    1
    31    18    20   ar
    32    20    21    1
    33    21    22    3
    34    20    14   ar
    35    12     1    1
    36    10     3    1
    37    29    24   ar
    38    34    30   ar
@<TRIPOS>MOLECULE
*****
 34 38 0 0 0
SMALL
GASTEIGER

@<TRIPOS>ATOM
      1 C         142.8477  140.2389  165.0336 C.3     1  UNL1        0.1531
      2 C         141.8396  139.6956  164.0648 C.3     1  UNL1        0.1067
      3 N         142.1664  139.6263  162.6026 N.3     1  UNL1       -0.2665
      4 C         141.1583  139.0831  161.6337 C.3     1  UNL1        0.0940
      5 C         141.4850  139.0138  160.1714 C.3     1  UNL1        0.1107
      6 N         142.8199  139.4877  159.6779 N.am    1  UNL1       -0.2763
      7 C         143.1467  139.4183  158.2155 C.2     1  UNL1        0.2318
      8 O         144.4815  139.8922  157.7220 O.2     1  UNL1       -0.2744
      9 C         143.8280  140.0309  160.6467 C.3     1  UNL1        0.1119
     10 C         143.5012  140.1002  162.1090 C.3     1  UNL1        0.1075
     11 C         144.5093  140.6435  163.0778 C.3     1  UNL1        0.1601
     12 O         144.1826  140.7128  164.5401 O.3     1  UNL1       -0.3489
     13 C         141.5022  142.6739  166.1563 C.3     1  UNL1        0.0316
     14 C         141.8482  141.5257  167.0573 C.ar    1  UNL1       -0.0117
     15 C         142.5209  140.3082  166.4960 C.ar    1  UNL1        0.0027
     16 C         142.8669  139.1600  167.3971 C.ar    1  UNL1        0.0001
     17 C         142.5402  139.2293  168.8594 C.ar    1  UNL1        0.0301
     18 C         141.8675  140.4468  169.4207 C.ar    1  UNL1        0.1493
     19 F         141.5408  140.5161  170.8831 F       1  UNL1       -0.2035
     20 C         141.5215  141.5951  168.5197 C.ar    1  UNL1        0.0916
     21 C         140.8487  142.8126  169.0810 C.1     1  UNL1        0.1024
     22 N         140.1760  144.0301  169.6422 N.1     1  UNL1       -0.1908
     23 C         142.1386  138.8751  157.2467 C.3     1  UNL1        0.1325
     24 C         142.1641  137.4225  156.8734 C.ar    1  UNL1        0.0874
     25 C         141.1937  136.8912  155.8604 C.ar    1  UNL1        0.1157
     26 N         141.2193  135.4387  155.4872 N.ar    1  UNL1       -0.2223
     27 C         142.2153  134.5174  156.1268 C.ar    1  UNL1        0.1865
     28 C         143.1857  135.0486  157.1397 C.ar    1  UNL1        0.1373
     29 N         143.1602  136.5012  157.5130 N.ar    1  UNL1       -0.2429
     30 N         142.2409  133.0648  155.7535 N.ar    1  UNL1       -0.1693
     31 C         142.0764  132.5067  154.3709 C.ar    1  UNL1        0.2273
     32 N         142.1693  131.0122  154.4602 N.ar    1  UNL1       -0.1044
     33 N         142.3912  130.6467  155.8980 N.ar    1  UNL1       -0.0222
     34 N         142.4354  131.9152  156.6973 N.ar    1  UNL1       -0.0371
@<TRIPOS>BOND
     1    13    14    1
     2    14    15   ar
     3     1    15    1
     4     1     2    1
     5     2     3    1
     6     3     4    1
     7     4     5    1
     8     5     6    1
     9     6     7   am
    10     7     8    2
    11     7    23    1
    12    23    24    1
    13    24    25   ar
    14    25    26   ar
    15    26    27   ar
    16    27    30    1
    17    30    31   ar
    18    31    32   ar
    19    32    33   ar
    20    33    34   ar
    21    27    28   ar
    22    28    29   ar
    23     6     9    1
    24    10     9    1
    25    10    11    1
    26    11    12    1
    27    15    16   ar
    28    16    17   ar
    29    17    18   ar
    30    18    19    1
    31    18    20   ar
    32    20    21    1
    33    21    22    3
    34    20    14   ar
    35    12     1    1
    36    10     3    1
    37    29    24   ar
    38    34    30   ar
@<TRIPOS>MOLECULE
*****
 34 38 0 0 0
SMALL
GASTEIGER

@<TRIPOS>ATOM
      1 C         142.3098  142.4089  165.8380 C.3     1  UNL1        0.1531
      2 C         143.2505  141.6369  164.9611 C.3     1  UNL1        0.1067
      3 N         143.3691  141.9779  163.5052 N.3     1  UNL1       -0.2665
      4 C         144.3099  141.2060  162.6283 C.3     1  UNL1        0.0940
      5 C         144.4285  141.5470  161.1724 C.3     1  UNL1        0.1107
      6 N         143.6063  142.6600  160.5934 N.am    1  UNL1       -0.2763
      7 C         143.7250  143.0010  159.1375 C.2     1  UNL1        0.2318
      8 O         142.9028  144.1140  158.5585 O.2     1  UNL1       -0.2744
      9 C         142.6656  143.4320  161.4703 C.3     1  UNL1        0.1119
     10 C         142.5469  143.0909  162.9262 C.3     1  UNL1        0.1075
     11 C         141.6061  143.8629  163.8031 C.3     1  UNL1        0.1601
     12 O         141.4876  143.5219  165.2590 O.3     1  UNL1       -0.3489
     13 C         139.7899  141.1635  166.8865 C.3     1  UNL1        0.0316
     14 C         140.9312  141.4452  167.8181 C.ar    1  UNL1       -0.0117
     15 C         142.1911  142.0679  167.2939 C.ar    1  UNL1        0.0027
     16 C         143.3325  142.3496  168.2256 C.ar    1  UNL1        0.0001
     17 C         143.2139  142.0086  169.6815 C.ar    1  UNL1        0.0301
     18 C         141.9539  141.3859  170.2058 C.ar    1  UNL1        0.1493
     19 F         141.8353  141.0449  171.6616 F       1  UNL1       -0.2035
     20 C         140.8126  141.1042  169.2741 C.ar    1  UNL1        0.0916
     21 C         139.5527  140.4815  169.7983 C.1     1  UNL1        0.1024
     22 N         138.2927  139.8589  170.3225 N.1     1  UNL1       -0.1908
     23 C         144.6657  142.2290  158.2606 C.3     1  UNL1        0.1325
     24 C         144.2489  140.9023  157.6985 C.ar    1  UNL1        0.0874
     25 C         144.9836  140.3194  156.5278 C.ar    1  UNL1        0.1157
     26 N         144.5668  138.9927  155.9658 N.ar    1  UNL1       -0.2223
     27 C         143.4152  138.2487  156.5744 C.ar    1  UNL1        0.1865
     28 C         142.6805  138.8315  157.7450 C.ar    1  UNL1        0.1373
     29 N         143.0973  140.1583  158.3071 N.ar    1  UNL1       -0.2429
     30 N         142.9984  136.9220  156.0123 N.ar    1  UNL1       -0.1693
     31 C         143.9019  135.9173  155.3608 C.ar    1  UNL1        0.2273
     32 N         143.0667  134.7413  154.9489 N.ar    1  UNL1       -0.1044
     33 N         141.6470  135.0192  155.3458 N.ar    1  UNL1       -0.0222
     34 N         141.6048  136.3669  156.0030 N.ar    1  UNL1       -0.0371
@<TRIPOS>BOND
     1    13    14    1
     2    14    15   ar
     3     1    15    1
     4     1     2    1
     5     2     3    1
     6     3     4    1
     7     4     5    1
     8     5     6    1
     9     6     7   am
    10     7     8    2
    11     7    23    1
    12    23    24    1
    13    24    25   ar
    14    25    26   ar
    15    26    27   ar
    16    27    30    1
    17    30    31   ar
    18    31    32   ar
    19    32    33   ar
    20    33    34   ar
    21    27    28   ar
    22    28    29   ar
    23     6     9    1
    24    10     9    1
    25    10    11    1
    26    11    12    1
    27    15    16   ar
    28    16    17   ar
    29    17    18   ar
    30    18    19    1
    31    18    20   ar
    32    20    21    1
    33    21    22    3
    34    20    14   ar
    35    12     1    1
    36    10     3    1
    37    29    24   ar
    38    34    30   ar
@<TRIPOS>MOLECULE
*****
 34 38 0 0 0
SMALL
GASTEIGER

@<TRIPOS>ATOM
      1 C         140.4721  138.8224  158.1881 C.3     1  UNL1        0.1531
      2 C         139.9712  138.3532  159.5219 C.3     1  UNL1        0.1067
      3 N         140.8507  138.4579  160.7324 N.3     1  UNL1       -0.2665
      4 C         140.3498  137.9887  162.0663 C.3     1  UNL1        0.0940
      5 C         141.2293  138.0933  163.2768 C.3     1  UNL1        0.1107
      6 N         142.6098  138.6671  163.1536 N.am    1  UNL1       -0.2763
      7 C         143.4893  138.7718  164.3642 C.2     1  UNL1        0.2318
      8 O         144.8697  139.3456  164.2410 O.2     1  UNL1       -0.2744
      9 C         143.1107  139.1363  161.8199 C.3     1  UNL1        0.1119
     10 C         142.2311  139.0317  160.6092 C.3     1  UNL1        0.1075
     11 C         142.7320  139.5009  159.2755 C.3     1  UNL1        0.1601
     12 O         141.8525  139.3962  158.0650 O.3     1  UNL1       -0.3489
     13 C         138.8567  141.1887  157.2986 C.3     1  UNL1        0.0316
     14 C         138.7849  139.9009  156.5328 C.ar    1  UNL1       -0.0117
     15 C         139.5926  138.7178  156.9775 C.ar    1  UNL1        0.0027
     16 C         139.5208  137.4300  156.2117 C.ar    1  UNL1        0.0001
     17 C         138.6413  137.3254  155.0011 C.ar    1  UNL1        0.0301
     18 C         137.8336  138.5085  154.5563 C.ar    1  UNL1        0.1493
     19 F         136.9541  138.4039  153.3457 F       1  UNL1       -0.2035
     20 C         137.9054  139.7963  155.3221 C.ar    1  UNL1        0.0916
     21 C         137.0977  140.9794  154.8774 C.1     1  UNL1        0.1024
     22 N         136.2900  142.1625  154.4326 N.1     1  UNL1       -0.1908
     23 C         142.9884  138.3026  165.6980 C.3     1  UNL1        0.1325
     24 C         142.3539  139.2767  166.6458 C.ar    1  UNL1        0.0874
     25 C         141.1827  140.1017  166.2009 C.ar    1  UNL1        0.1157
     26 N         140.5483  141.0758  167.1487 N.ar    1  UNL1       -0.2223
     27 C         141.0849  141.2251  168.5415 C.ar    1  UNL1        0.1865
     28 C         142.2560  140.4002  168.9864 C.ar    1  UNL1        0.1373
     29 N         142.8905  139.4260  168.0386 N.ar    1  UNL1       -0.2429
     30 N         140.4504  142.1992  169.4893 N.ar    1  UNL1       -0.1693
     31 C         140.6376  143.6875  169.4804 C.ar    1  UNL1        0.2273
     32 N         139.8201  144.2643  170.5981 N.ar    1  UNL1       -0.1044
     33 N         139.1277  143.1324  171.2978 N.ar    1  UNL1       -0.0222
     34 N         139.5172  141.8562  170.6125 N.ar    1  UNL1       -0.0371
@<TRIPOS>BOND
     1    13    14    1
     2    14    15   ar
     3     1    15    1
     4     1     2    1
     5     2     3    1
     6     3     4    1
     7     4     5    1
     8     5     6    1
     9     6     7   am
    10     7     8    2
    11     7    23    1
    12    23    24    1
    13    24    25   ar
    14    25    26   ar
    15    26    27   ar
    16    27    30    1
    17    30    31   ar
    18    31    32   ar
    19    32    33   ar
    20    33    34   ar
    21    27    28   ar
    22    28    29   ar
    23     6     9    1
    24    10     9    1
    25    10    11    1
    26    11    12    1
    27    15    16   ar
    28    16    17   ar
    29    17    18   ar
    30    18    19    1
    31    18    20   ar
    32    20    21    1
    33    21    22    3
    34    20    14   ar
    35    12     1    1
    36    10     3    1
    37    29    24   ar
    38    34    30   ar
@<TRIPOS>MOLECULE
*****
 34 38 0 0 0
SMALL
GASTEIGER

@<TRIPOS>ATOM
      1 C         141.5262  138.4840  158.1999 C.3     1  UNL1        0.1531
      2 C         141.0333  137.9644  159.5178 C.3     1  UNL1        0.1067
      3 N         141.8010  138.2552  160.7732 N.3     1  UNL1       -0.2665
      4 C         141.3080  137.7356  162.0912 C.3     1  UNL1        0.0940
      5 C         142.0757  138.0264  163.3466 C.3     1  UNL1        0.1107
      6 N         143.3364  138.8369  163.2840 N.am    1  UNL1       -0.2763
      7 C         144.1041  139.1277  164.5395 C.2     1  UNL1        0.2318
      8 O         145.3648  139.9381  164.4769 O.2     1  UNL1       -0.2744
      9 C         143.8294  139.3565  161.9661 C.3     1  UNL1        0.1119
     10 C         143.0617  139.0657  160.7106 C.3     1  UNL1        0.1075
     11 C         143.5546  139.5853  159.3927 C.3     1  UNL1        0.1601
     12 O         142.7869  139.2945  158.1374 O.3     1  UNL1       -0.3489
     13 C         142.2934  136.1493  156.4792 C.3     1  UNL1        0.0316
     14 C         141.1421  137.0259  156.0841 C.ar    1  UNL1       -0.0117
     15 C         140.7585  138.1932  156.9444 C.ar    1  UNL1        0.0027
     16 C         139.6072  139.0698  156.5494 C.ar    1  UNL1        0.0001
     17 C         138.8395  138.7790  155.2940 C.ar    1  UNL1        0.0301
     18 C         139.2231  137.6117  154.4336 C.ar    1  UNL1        0.1493
     19 F         138.4554  137.3209  153.1782 F       1  UNL1       -0.2035
     20 C         140.3744  136.7351  154.8287 C.ar    1  UNL1        0.0916
     21 C         140.7580  135.5678  153.9684 C.1     1  UNL1        0.1024
     22 N         141.1416  134.4005  153.1081 N.1     1  UNL1       -0.1908
     23 C         143.6112  138.6081  165.8574 C.3     1  UNL1        0.1325
     24 C         142.8416  139.5082  166.7779 C.ar    1  UNL1        0.0874
     25 C         142.0071  140.6203  166.2150 C.ar    1  UNL1        0.1157
     26 N         141.2374  141.5204  167.1355 N.ar    1  UNL1       -0.2223
     27 C         141.3023  141.3084  168.6191 C.ar    1  UNL1        0.1865
     28 C         142.1367  140.1964  169.1820 C.ar    1  UNL1        0.1373
     29 N         142.9064  139.2962  168.2615 N.ar    1  UNL1       -0.2429
     30 N         140.5327  142.2085  169.5396 N.ar    1  UNL1       -0.1693
     31 C         140.7765  143.6740  169.7473 C.ar    1  UNL1        0.2273
     32 N         139.7786  144.1724  170.7502 N.ar    1  UNL1       -0.1044
     33 N         138.9179  143.0150  171.1623 N.ar    1  UNL1       -0.0222
     34 N         139.3839  141.8013  170.4141 N.ar    1  UNL1       -0.0371
@<TRIPOS>BOND
     1    13    14    1
     2    14    15   ar
     3     1    15    1
     4     1     2    1
     5     2     3    1
     6     3     4    1
     7     4     5    1
     8     5     6    1
     9     6     7   am
    10     7     8    2
    11     7    23    1
    12    23    24    1
    13    24    25   ar
    14    25    26   ar
    15    26    27   ar
    16    27    30    1
    17    30    31   ar
    18    31    32   ar
    19    32    33   ar
    20    33    34   ar
    21    27    28   ar
    22    28    29   ar
    23     6     9    1
    24    10     9    1
    25    10    11    1
    26    11    12    1
    27    15    16   ar
    28    16    17   ar
    29    17    18   ar
    30    18    19    1
    31    18    20   ar
    32    20    21    1
    33    21    22    3
    34    20    14   ar
    35    12     1    1
    36    10     3    1
    37    29    24   ar
    38    34    30   ar
@<TRIPOS>MOLECULE
*****
 34 38 0 0 0
SMALL
GASTEIGER

@<TRIPOS>ATOM
      1 C         142.5744  140.6623  164.2994 C.3     1  UNL1        0.1531
      2 C         141.5845  140.0328  163.3646 C.3     1  UNL1        0.1067
      3 N         141.9468  139.8127  161.9258 N.3     1  UNL1       -0.2665
      4 C         140.9568  139.1832  160.9910 C.3     1  UNL1        0.0940
      5 C         141.3190  138.9631  159.5522 C.3     1  UNL1        0.1107
      6 N         142.6712  139.3724  159.0481 N.am    1  UNL1       -0.2763
      7 C         143.0334  139.1522  157.6092 C.2     1  UNL1        0.2318
      8 O         144.3856  139.5615  157.1051 O.2     1  UNL1       -0.2744
      9 C         143.6611  140.0018  159.9828 C.3     1  UNL1        0.1119
     10 C         143.2989  140.2220  161.4217 C.3     1  UNL1        0.1075
     11 C         144.2889  140.8514  162.3565 C.3     1  UNL1        0.1601
     12 O         143.9266  141.0716  163.7953 O.3     1  UNL1       -0.3489
     13 C         143.3554  138.6365  166.3698 C.3     1  UNL1        0.0316
     14 C         142.6027  139.8696  166.7734 C.ar    1  UNL1       -0.0117
     15 C         142.2122  140.8824  165.7383 C.ar    1  UNL1        0.0027
     16 C         141.4595  142.1155  166.1420 C.ar    1  UNL1        0.0001
     17 C         141.0973  142.3357  167.5808 C.ar    1  UNL1        0.0301
     18 C         141.4878  141.3228  168.6161 C.ar    1  UNL1        0.1493
     19 F         141.1256  141.5430  170.0549 F       1  UNL1       -0.2035
     20 C         142.2405  140.0897  168.2124 C.ar    1  UNL1        0.0916
     21 C         142.6310  139.0769  169.2475 C.1     1  UNL1        0.1024
     22 N         143.0215  138.0640  170.2826 N.1     1  UNL1       -0.1908
     23 C         142.0435  138.5228  156.6744 C.3     1  UNL1        0.1325
     24 C         142.0507  137.0378  156.4634 C.ar    1  UNL1        0.0874
     25 C         141.0714  136.4101  155.5162 C.ar    1  UNL1        0.1157
     26 N         141.0786  134.9251  155.3051 N.ar    1  UNL1       -0.2223
     27 C         142.0649  134.0676  156.0412 C.ar    1  UNL1        0.1865
     28 C         143.0442  134.6952  156.9884 C.ar    1  UNL1        0.1373
     29 N         143.0370  136.1804  157.1995 N.ar    1  UNL1       -0.2429
     30 N         142.0721  132.5826  155.8302 N.ar    1  UNL1       -0.1693
     31 C         141.2588  131.8320  154.8177 C.ar    1  UNL1        0.2273
     32 N         141.5779  130.3728  154.9563 N.ar    1  UNL1       -0.1044
     33 N         142.5884  130.2217  156.0546 N.ar    1  UNL1       -0.0222
     34 N         142.8938  131.5873  156.5946 N.ar    1  UNL1       -0.0371
@<TRIPOS>BOND
     1    13    14    1
     2    14    15   ar
     3     1    15    1
     4     1     2    1
     5     2     3    1
     6     3     4    1
     7     4     5    1
     8     5     6    1
     9     6     7   am
    10     7     8    2
    11     7    23    1
    12    23    24    1
    13    24    25   ar
    14    25    26   ar
    15    26    27   ar
    16    27    30    1
    17    30    31   ar
    18    31    32   ar
    19    32    33   ar
    20    33    34   ar
    21    27    28   ar
    22    28    29   ar
    23     6     9    1
    24    10     9    1
    25    10    11    1
    26    11    12    1
    27    15    16   ar
    28    16    17   ar
    29    17    18   ar
    30    18    19    1
    31    18    20   ar
    32    20    21    1
    33    21    22    3
    34    20    14   ar
    35    12     1    1
    36    10     3    1
    37    29    24   ar
    38    34    30   ar
@<TRIPOS>MOLECULE
*****
 34 38 0 0 0
SMALL
GASTEIGER

@<TRIPOS>ATOM
      1 C         142.0854  142.0216  165.5374 C.3     1  UNL1        0.1531
      2 C         142.8602  141.0260  164.7260 C.3     1  UNL1        0.1067
      3 N         142.9502  141.1799  163.2366 N.3     1  UNL1       -0.2665
      4 C         143.7250  140.1843  162.4252 C.3     1  UNL1        0.0940
      5 C         143.8150  140.3382  160.9358 C.3     1  UNL1        0.1107
      6 N         143.1301  141.4877  160.2579 N.am    1  UNL1       -0.2763
      7 C         143.2201  141.6416  158.7684 C.2     1  UNL1        0.2318
      8 O         142.5352  142.7911  158.0905 O.2     1  UNL1       -0.2744
      9 C         142.3553  142.4833  161.0693 C.3     1  UNL1        0.1119
     10 C         142.2653  142.3294  162.5587 C.3     1  UNL1        0.1075
     11 C         141.4905  143.3250  163.3701 C.3     1  UNL1        0.1601
     12 O         141.4005  143.1711  164.8594 O.3     1  UNL1       -0.3489
     13 C         139.6304  140.8221  166.7759 C.3     1  UNL1        0.0316
     14 C         140.7680  141.2680  167.6460 C.ar    1  UNL1       -0.0117
     15 C         141.9954  141.8678  167.0268 C.ar    1  UNL1        0.0027
     16 C         143.1330  142.3137  167.8969 C.ar    1  UNL1        0.0001
     17 C         143.0431  142.1598  169.3862 C.ar    1  UNL1        0.0301
     18 C         141.8156  141.5600  170.0056 C.ar    1  UNL1        0.1493
     19 F         141.7256  141.4062  171.4949 F       1  UNL1       -0.2035
     20 C         140.6780  141.1141  169.1355 C.ar    1  UNL1        0.0916
     21 C         139.4505  140.5144  169.7547 C.1     1  UNL1        0.1024
     22 N         138.2230  139.9146  170.3739 N.1     1  UNL1       -0.1908
     23 C         143.9949  140.6460  157.9571 C.3     1  UNL1        0.1325
     24 C         145.1381  141.1038  157.1007 C.ar    1  UNL1        0.0874
     25 C         145.4128  140.4256  155.7911 C.ar    1  UNL1        0.1157
     26 N         146.5560  140.8834  154.9347 N.ar    1  UNL1       -0.2223
     27 C         147.4246  142.0193  155.3878 C.ar    1  UNL1        0.1865
     28 C         147.1500  142.6975  156.6972 C.ar    1  UNL1        0.1373
     29 N         146.0067  142.2397  157.5537 N.ar    1  UNL1       -0.2429
     30 N         148.5678  142.4771  154.5314 N.ar    1  UNL1       -0.1693
     31 C         149.9654  141.9334  154.5622 C.ar    1  UNL1        0.2273
     32 N         150.7756  142.6793  153.5436 N.ar    1  UNL1       -0.1044
     33 N         149.8785  143.6840  152.8832 N.ar    1  UNL1       -0.0222
     34 N         148.5141  143.5590  153.4937 N.ar    1  UNL1       -0.0371
@<TRIPOS>BOND
     1    13    14    1
     2    14    15   ar
     3     1    15    1
     4     1     2    1
     5     2     3    1
     6     3     4    1
     7     4     5    1
     8     5     6    1
     9     6     7   am
    10     7     8    2
    11     7    23    1
    12    23    24    1
    13    24    25   ar
    14    25    26   ar
    15    26    27   ar
    16    27    30    1
    17    30    31   ar
    18    31    32   ar
    19    32    33   ar
    20    33    34   ar
    21    27    28   ar
    22    28    29   ar
    23     6     9    1
    24    10     9    1
    25    10    11    1
    26    11    12    1
    27    15    16   ar
    28    16    17   ar
    29    17    18   ar
    30    18    19    1
    31    18    20   ar
    32    20    21    1
    33    21    22    3
    34    20    14   ar
    35    12     1    1
    36    10     3    1
    37    29    24   ar
    38    34    30   ar
@<TRIPOS>MOLECULE
*****
 34 38 0 0 0
SMALL
GASTEIGER

@<TRIPOS>ATOM
      1 C         141.1805  140.2560  164.5619 C.3     1  UNL1        0.1531
      2 C         142.2733  139.4741  163.8953 C.3     1  UNL1        0.1067
      3 N         142.1507  139.0974  162.4486 N.3     1  UNL1       -0.2665
      4 C         143.2436  138.3155  161.7819 C.3     1  UNL1        0.0940
      5 C         143.1210  137.9388  160.3352 C.3     1  UNL1        0.1107
      6 N         141.9056  138.3440  159.5551 N.am    1  UNL1       -0.2763
      7 C         141.7831  137.9673  158.1083 C.2     1  UNL1        0.2318
      8 O         140.5677  138.3725  157.3281 O.2     1  UNL1       -0.2744
      9 C         140.8128  139.1259  160.2216 C.3     1  UNL1        0.1119
     10 C         140.9353  139.5026  161.6684 C.3     1  UNL1        0.1075
     11 C         139.8425  140.2845  162.3350 C.3     1  UNL1        0.1601
     12 O         139.9651  140.6612  163.7817 O.3     1  UNL1       -0.3489
     13 C         139.0140  139.5045  166.4963 C.3     1  UNL1        0.0316
     14 C         140.2198  140.2569  166.9758 C.ar    1  UNL1       -0.0117
     15 C         141.3030  140.6327  166.0087 C.ar    1  UNL1        0.0027
     16 C         142.5087  141.3851  166.4882 C.ar    1  UNL1        0.0001
     17 C         142.6313  141.7618  167.9349 C.ar    1  UNL1        0.0301
     18 C         141.5481  141.3861  168.9022 C.ar    1  UNL1        0.1493
     19 F         141.6707  141.7628  170.3489 F       1  UNL1       -0.2035
     20 C         140.3423  140.6337  168.4226 C.ar    1  UNL1        0.0916
     21 C         139.2591  140.2579  169.3898 C.1     1  UNL1        0.1024
     22 N         138.1760  139.8822  170.3570 N.1     1  UNL1       -0.1908
     23 C         142.8759  137.1854  157.4417 C.3     1  UNL1        0.1325
     24 C         142.6104  135.7925  156.9527 C.ar    1  UNL1        0.0874
     25 C         143.2311  134.6205  157.6534 C.ar    1  UNL1        0.1157
     26 N         142.9656  133.2275  157.1644 N.ar    1  UNL1       -0.2223
     27 C         142.0793  133.0066  155.9746 C.ar    1  UNL1        0.1865
     28 C         141.4585  134.1785  155.2738 C.ar    1  UNL1        0.1373
     29 N         141.7241  135.5715  155.7628 N.ar    1  UNL1       -0.2429
     30 N         141.8138  131.6136  155.4856 N.ar    1  UNL1       -0.1693
     31 C         140.6135  131.1672  154.7045 C.ar    1  UNL1        0.2273
     32 N         140.7598  129.7001  154.4279 N.ar    1  UNL1       -0.1044
     33 N         142.0506  129.2399  155.0380 N.ar    1  UNL1       -0.0222
     34 N         142.7020  130.4225  155.6916 N.ar    1  UNL1       -0.0371
@<TRIPOS>BOND
     1    13    14    1
     2    14    15   ar
     3     1    15    1
     4     1     2    1
     5     2     3    1
     6     3     4    1
     7     4     5    1
     8     5     6    1
     9     6     7   am
    10     7     8    2
    11     7    23    1
    12    23    24    1
    13    24    25   ar
    14    25    26   ar
    15    26    27   ar
    16    27    30    1
    17    30    31   ar
    18    31    32   ar
    19    32    33   ar
    20    33    34   ar
    21    27    28   ar
    22    28    29   ar
    23     6     9    1
    24    10     9    1
    25    10    11    1
    26    11    12    1
    27    15    16   ar
    28    16    17   ar
    29    17    18   ar
    30    18    19    1
    31    18    20   ar
    32    20    21    1
    33    21    22    3
    34    20    14   ar
    35    12     1    1
    36    10     3    1
    37    29    24   ar
    38    34    30   ar
@<TRIPOS>MOLECULE
*****
 34 38 0 0 0
SMALL
GASTEIGER

@<TRIPOS>ATOM
      1 C         140.7314  140.5598  165.2856 C.3     1  UNL1        0.1531
      2 C         141.7816  140.3094  164.2443 C.3     1  UNL1        0.1067
      3 N         141.3829  140.0860  162.8157 N.3     1  UNL1       -0.2665
      4 C         142.4331  139.8356  161.7742 C.3     1  UNL1        0.0940
      5 C         142.0344  139.6122  160.3456 C.3     1  UNL1        0.1107
      6 N         140.5855  139.6392  159.9583 N.am    1  UNL1       -0.2763
      7 C         140.1868  139.4157  158.5295 C.2     1  UNL1        0.2318
      8 O         138.7379  139.4427  158.1422 O.2     1  UNL1       -0.2744
      9 C         139.5353  139.8895  160.9996 C.3     1  UNL1        0.1119
     10 C         139.9340  140.1130  162.4283 C.3     1  UNL1        0.1075
     11 C         138.8838  140.3633  163.4697 C.3     1  UNL1        0.1601
     12 O         139.2826  140.5867  164.8983 O.3     1  UNL1       -0.3489
     13 C         139.8752  143.0581  166.7088 C.3     1  UNL1        0.0316
     14 C         140.7020  142.0323  167.4259 C.ar    1  UNL1       -0.0117
     15 C         141.1301  140.7832  166.7144 C.ar    1  UNL1        0.0027
     16 C         141.9569  139.7575  167.4315 C.ar    1  UNL1        0.0001
     17 C         142.3556  139.9808  168.8601 C.ar    1  UNL1        0.0301
     18 C         141.9275  141.2300  169.5718 C.ar    1  UNL1        0.1493
     19 F         142.3262  141.4534  171.0004 F       1  UNL1       -0.2035
     20 C         141.1007  142.2558  168.8547 C.ar    1  UNL1        0.0916
     21 C         140.6725  143.5049  169.5662 C.1     1  UNL1        0.1024
     22 N         140.2444  144.7540  170.2778 N.1     1  UNL1       -0.1908
     23 C         141.2370  139.1654  157.4882 C.3     1  UNL1        0.1325
     24 C         141.5488  137.7621  157.0598 C.ar    1  UNL1        0.0874
     25 C         140.7093  137.0940  156.0114 C.ar    1  UNL1        0.1157
     26 N         141.0211  135.6908  155.5829 N.ar    1  UNL1       -0.2223
     27 C         142.1723  134.9555  156.2028 C.ar    1  UNL1        0.1865
     28 C         143.0117  135.6236  157.2511 C.ar    1  UNL1        0.1373
     29 N         142.6999  137.0269  157.6796 N.ar    1  UNL1       -0.2429
     30 N         142.4841  133.5523  155.7743 N.ar    1  UNL1       -0.1693
     31 C         142.7306  133.0942  154.3674 C.ar    1  UNL1        0.2273
     32 N         143.0029  131.6194  154.4011 N.ar    1  UNL1       -0.1044
     33 N         142.9248  131.1661  155.8289 N.ar    1  UNL1       -0.0222
     34 N         142.6041  132.3607  156.6775 N.ar    1  UNL1       -0.0371
@<TRIPOS>BOND
     1    13    14    1
     2    14    15   ar
     3     1    15    1
     4     1     2    1
     5     2     3    1
     6     3     4    1
     7     4     5    1
     8     5     6    1
     9     6     7   am
    10     7     8    2
    11     7    23    1
    12    23    24    1
    13    24    25   ar
    14    25    26   ar
    15    26    27   ar
    16    27    30    1
    17    30    31   ar
    18    31    32   ar
    19    32    33   ar
    20    33    34   ar
    21    27    28   ar
    22    28    29   ar
    23     6     9    1
    24    10     9    1
    25    10    11    1
    26    11    12    1
    27    15    16   ar
    28    16    17   ar
    29    17    18   ar
    30    18    19    1
    31    18    20   ar
    32    20    21    1
    33    21    22    3
    34    20    14   ar
    35    12     1    1
    36    10     3    1
    37    29    24   ar
    38    34    30   ar
