@<TRIPOS>MOLECULE
*****
 28 30 0 0 0
SMALL
GASTEIGER

@<TRIPOS>ATOM
      1 C         141.3391  140.6216  166.9483 C.ar    1  UNL1        0.0252
      2 C         140.0925  141.0581  166.2375 C.ar    1  UNL1       -0.0009
      3 C         139.5447  140.2344  165.1099 C.ar    1  UNL1        0.0210
      4 C         140.2435  138.9743  164.6932 C.ar    1  UNL1        0.1397
      5 F         139.6956  138.1506  163.5656 F       1  UNL1       -0.2044
      6 C         141.4901  138.5378  165.4041 C.ar    1  UNL1        0.0587
      7 C         142.0379  139.3614  166.5316 C.ar    1  UNL1        0.1401
      8 F         143.2846  138.9249  167.2426 F       1  UNL1       -0.2044
      9 C         142.6294  142.0545  166.9237 C.3     1  UNL1        0.0291
     10 C         141.8870  141.4453  168.0760 C.3     1  UNL1        0.1080
     11 C         140.9544  140.5500  168.8366 C.3     1  UNL1        0.0388
     12 C         140.8274  140.6900  170.3246 C.3     1  UNL1        0.0671
     13 S         141.6331  141.7252  171.0520 S.3     1  UNL1       -0.0807
     14 C         142.5658  142.6205  170.2914 C.2     1  UNL1        0.1482
     15 N         143.3715  143.6557  171.0188 N.pl3   1  UNL1       -0.3380
     16 N         142.6928  142.4805  168.8034 N.2     1  UNL1       -0.2509
     17 H         143.2882  143.7476  171.9955 H       1  UNL1        0.1442
     18 H         143.9837  144.2433  170.5196 H       1  UNL1        0.1442
     19 C         138.2980  140.6709  164.3990 C.3     1  UNL1        0.0980
     20 N         137.6925  142.0098  164.7004 N.3     1  UNL1       -0.2892
     21 H         137.9605  142.2458  165.6558 H       1  UNL1        0.1237
     22 C         138.0348  143.1964  163.8491 C.3     1  UNL1        0.1307
     23 C         138.2494  144.0398  162.6273 C.3     1  UNL1        0.0245
     24 C         137.7862  142.6201  162.4868 C.3     1  UNL1        0.0245
     25 C         138.4022  144.1850  164.9158 C.3     1  UNL1        0.4088
     26 F         138.7696  145.1734  165.9825 F       1  UNL1       -0.1686
     27 F         136.9498  144.4905  165.1331 F       1  UNL1       -0.1686
     28 F         139.8546  143.8794  164.6985 F       1  UNL1       -0.1686
@<TRIPOS>BOND
     1    10     9    1
     2    10     1    1
     3     1     2   ar
     4     2     3   ar
     5     3    19    1
     6    19    20    1
     7    20    22    1
     8    22    25    1
     9    25    26    1
    10    25    27    1
    11    25    28    1
    12    22    23    1
    13    23    24    1
    14     3     4   ar
    15     4     5    1
    16     4     6   ar
    17     6     7   ar
    18     7     8    1
    19    10    11    1
    20    11    12    1
    21    12    13    1
    22    13    14    1
    23    14    15    1
    24    14    16    2
    25    16    10    1
    26     7     1   ar
    27    24    22    1
    28    20    21    1
    29    15    17    1
    30    15    18    1
@<TRIPOS>MOLECULE
*****
 28 30 0 0 0
SMALL
GASTEIGER

@<TRIPOS>ATOM
      1 C         138.7612  139.7298  165.6946 C.ar    1  UNL1        0.0252
      2 C         138.3183  141.0018  165.0344 C.ar    1  UNL1       -0.0009
      3 C         138.0266  141.0209  163.5631 C.ar    1  UNL1        0.0210
      4 C         138.1779  139.7681  162.7522 C.ar    1  UNL1        0.1397
      5 F         137.8862  139.7873  161.2809 F       1  UNL1       -0.2044
      6 C         138.6209  138.4962  163.4124 C.ar    1  UNL1        0.0587
      7 C         138.9125  138.4771  164.8836 C.ar    1  UNL1        0.1401
      8 F         139.3555  137.2051  165.5440 F       1  UNL1       -0.2044
      9 C         137.7583  138.9532  167.1471 C.3     1  UNL1        0.0291
     10 C         139.0529  139.7106  167.1659 C.3     1  UNL1        0.1080
     11 C         140.2462  140.4747  166.6738 C.3     1  UNL1        0.0388
     12 C         141.2815  140.9565  167.6463 C.3     1  UNL1        0.0671
     13 S         141.1236  140.6743  169.1111 S.3     1  UNL1       -0.0807
     14 C         139.9303  139.9102  169.6032 C.2     1  UNL1        0.1482
     15 N         139.7723  139.6280  171.0679 N.pl3   1  UNL1       -0.3380
     16 N         138.8949  139.4284  168.6306 N.2     1  UNL1       -0.2509
     17 H         140.4518  139.9442  171.7063 H       1  UNL1        0.1442
     18 H         138.9891  139.1265  171.3909 H       1  UNL1        0.1442
     19 C         137.5837  142.2929  162.9028 C.3     1  UNL1        0.0980
     20 N         137.6618  143.5918  163.6488 N.3     1  UNL1       -0.2892
     21 H         137.4129  143.3906  164.6173 H       1  UNL1        0.1237
     22 C         138.9493  144.3606  163.6834 C.3     1  UNL1        0.1307
     23 C         140.1123  145.1841  163.2151 C.3     1  UNL1        0.0245
     24 C         139.0379  144.7850  162.2475 C.3     1  UNL1        0.0245
     25 C         139.3079  144.2032  165.1314 C.3     1  UNL1        0.4088
     26 F         139.6664  144.0457  166.5794 F       1  UNL1       -0.1686
     27 F         140.4083  143.2555  164.7559 F       1  UNL1       -0.1686
     28 F         138.2074  145.1509  165.5069 F       1  UNL1       -0.1686
@<TRIPOS>BOND
     1    10     9    1
     2    10     1    1
     3     1     2   ar
     4     2     3   ar
     5     3    19    1
     6    19    20    1
     7    20    22    1
     8    22    25    1
     9    25    26    1
    10    25    27    1
    11    25    28    1
    12    22    23    1
    13    23    24    1
    14     3     4   ar
    15     4     5    1
    16     4     6   ar
    17     6     7   ar
    18     7     8    1
    19    10    11    1
    20    11    12    1
    21    12    13    1
    22    13    14    1
    23    14    15    1
    24    14    16    2
    25    16    10    1
    26     7     1   ar
    27    24    22    1
    28    20    21    1
    29    15    17    1
    30    15    18    1
@<TRIPOS>MOLECULE
*****
 28 30 0 0 0
SMALL
GASTEIGER

@<TRIPOS>ATOM
      1 C         142.4370  141.4229  166.3813 C.ar    1  UNL1        0.0252
      2 C         141.9302  140.0675  165.9862 C.ar    1  UNL1       -0.0009
      3 C         142.5957  139.3130  164.8737 C.ar    1  UNL1        0.0210
      4 C         143.7679  139.9139  164.1562 C.ar    1  UNL1        0.1397
      5 F         144.4334  139.1593  163.0436 F       1  UNL1       -0.2044
      6 C         144.2747  141.2692  164.5513 C.ar    1  UNL1        0.0587
      7 C         143.6092  142.0237  165.6638 C.ar    1  UNL1        0.1401
      8 F         144.1160  143.3792  166.0589 F       1  UNL1       -0.2044
      9 C         140.8317  142.4913  166.3677 C.3     1  UNL1        0.0291
     10 C         141.7715  142.1774  167.4939 C.3     1  UNL1        0.1080
     11 C         142.9423  141.6015  168.2337 C.3     1  UNL1        0.0388
     12 C         143.1214  141.8892  169.6949 C.3     1  UNL1        0.0671
     13 S         142.1295  142.7527  170.4163 S.3     1  UNL1       -0.0807
     14 C         140.9586  143.3287  169.6766 C.2     1  UNL1        0.1482
     15 N         139.9667  144.1922  170.3980 N.pl3   1  UNL1       -0.3380
     16 N         140.7796  143.0410  168.2153 N.2     1  UNL1       -0.2509
     17 H         140.0842  144.3810  171.3571 H       1  UNL1        0.1442
     18 H         139.1982  144.5702  169.9124 H       1  UNL1        0.1442
     19 C         142.0889  137.9576  164.4786 C.3     1  UNL1        0.0980
     20 N         140.7231  137.5124  164.9101 N.3     1  UNL1       -0.2892
     21 H         140.5832  137.8667  165.8564 H       1  UNL1        0.1237
     22 C         139.5169  137.9148  164.1144 C.3     1  UNL1        0.1307
     23 C         138.6243  138.1592  162.9339 C.3     1  UNL1        0.0245
     24 C         140.0010  137.5997  162.7302 C.3     1  UNL1        0.0245
     25 C         138.6138  138.3695  165.2225 C.3     1  UNL1        0.4088
     26 F         137.7107  138.8244  166.3304 F       1  UNL1       -0.1686
     27 F         138.8704  139.7985  164.8451 F       1  UNL1       -0.1686
     28 F         138.3572  136.9406  165.5998 F       1  UNL1       -0.1686
@<TRIPOS>BOND
     1    10     9    1
     2    10     1    1
     3     1     2   ar
     4     2     3   ar
     5     3    19    1
     6    19    20    1
     7    20    22    1
     8    22    25    1
     9    25    26    1
    10    25    27    1
    11    25    28    1
    12    22    23    1
    13    23    24    1
    14     3     4   ar
    15     4     5    1
    16     4     6   ar
    17     6     7   ar
    18     7     8    1
    19    10    11    1
    20    11    12    1
    21    12    13    1
    22    13    14    1
    23    14    15    1
    24    14    16    2
    25    16    10    1
    26     7     1   ar
    27    24    22    1
    28    20    21    1
    29    15    17    1
    30    15    18    1
@<TRIPOS>MOLECULE
*****
 28 30 0 0 0
SMALL
GASTEIGER

@<TRIPOS>ATOM
      1 C         140.2777  141.3550  166.8844 C.ar    1  UNL1        0.0252
      2 C         140.3829  142.7442  166.3286 C.ar    1  UNL1       -0.0009
      3 C         139.5086  143.1621  165.1837 C.ar    1  UNL1        0.0210
      4 C         138.5291  142.1908  164.5946 C.ar    1  UNL1        0.1397
      5 F         137.6547  142.6088  163.4496 F       1  UNL1       -0.2044
      6 C         138.4239  140.8016  165.1504 C.ar    1  UNL1        0.0587
      7 C         139.2982  140.3837  166.2953 C.ar    1  UNL1        0.1401
      8 F         139.1930  138.9944  166.8511 F       1  UNL1       -0.2044
      9 C         142.0039  140.4954  166.8764 C.3     1  UNL1        0.0291
     10 C         141.1521  140.9370  168.0294 C.3     1  UNL1        0.1080
     11 C         139.9966  141.5238  168.7847 C.3     1  UNL1        0.0388
     12 C         140.0113  141.5393  170.2845 C.3     1  UNL1        0.0671
     13 S         141.1815  140.9679  171.0290 S.3     1  UNL1       -0.0807
     14 C         142.3369  140.3811  170.2737 C.2     1  UNL1        0.1482
     15 N         143.5071  139.8098  171.0182 N.pl3   1  UNL1       -0.3380
     16 N         142.3223  140.3657  168.7739 N.2     1  UNL1       -0.2509
     17 H         143.5168  139.8199  172.0026 H       1  UNL1        0.1442
     18 H         144.2655  139.4246  170.5224 H       1  UNL1        0.1442
     19 C         139.6138  144.5514  164.6278 C.3     1  UNL1        0.0980
     20 N         140.9622  145.1563  164.3708 N.3     1  UNL1       -0.2892
     21 H         141.5141  145.0158  165.2171 H       1  UNL1        0.1237
     22 C         141.7966  144.6687  163.2237 C.3     1  UNL1        0.1307
     23 C         142.2162  144.3597  161.8171 C.3     1  UNL1        0.0245
     24 C         140.8918  145.0137  162.0783 C.3     1  UNL1        0.0245
     25 C         142.9913  144.1542  163.9709 C.3     1  UNL1        0.4088
     26 F         144.1859  143.6397  164.7180 F       1  UNL1       -0.1686
     27 F         142.4696  142.7538  163.8409 F       1  UNL1       -0.1686
     28 F         143.5129  145.5545  164.1009 F       1  UNL1       -0.1686
@<TRIPOS>BOND
     1    10     9    1
     2    10     1    1
     3     1     2   ar
     4     2     3   ar
     5     3    19    1
     6    19    20    1
     7    20    22    1
     8    22    25    1
     9    25    26    1
    10    25    27    1
    11    25    28    1
    12    22    23    1
    13    23    24    1
    14     3     4   ar
    15     4     5    1
    16     4     6   ar
    17     6     7   ar
    18     7     8    1
    19    10    11    1
    20    11    12    1
    21    12    13    1
    22    13    14    1
    23    14    15    1
    24    14    16    2
    25    16    10    1
    26     7     1   ar
    27    24    22    1
    28    20    21    1
    29    15    17    1
    30    15    18    1
@<TRIPOS>MOLECULE
*****
 28 30 0 0 0
SMALL
GASTEIGER

@<TRIPOS>ATOM
      1 C         140.6566  140.2001  166.6089 C.ar    1  UNL1        0.0252
      2 C         141.9644  139.9764  165.9092 C.ar    1  UNL1       -0.0009
      3 C         142.1010  138.8637  164.9126 C.ar    1  UNL1        0.0210
      4 C         140.9297  137.9749  164.6156 C.ar    1  UNL1        0.1397
      5 F         141.0664  136.8622  163.6189 F       1  UNL1       -0.2044
      6 C         139.6220  138.1986  165.3153 C.ar    1  UNL1        0.0587
      7 C         139.4854  139.3112  166.3120 C.ar    1  UNL1        0.1401
      8 F         138.1776  139.5350  167.0117 F       1  UNL1       -0.2044
      9 C         140.3056  142.0760  166.3322 C.3     1  UNL1        0.0291
     10 C         140.5200  141.3128  167.6056 C.3     1  UNL1        0.1080
     11 C         140.7818  140.1632  168.5329 C.3     1  UNL1        0.0388
     12 C         140.8325  140.3913  170.0146 C.3     1  UNL1        0.0671
     13 S         140.6214  141.7690  170.5690 S.3     1  UNL1       -0.0807
     14 C         140.3596  142.9186  169.6417 C.2     1  UNL1        0.1482
     15 N         140.1486  144.2963  170.1962 N.pl3   1  UNL1       -0.3380
     16 N         140.3089  142.6905  168.1601 N.2     1  UNL1       -0.2509
     17 H         140.1819  144.4461  171.1686 H       1  UNL1        0.1442
     18 H         139.9767  145.0509  169.5875 H       1  UNL1        0.1442
     19 C         143.4088  138.6399  164.2128 C.3     1  UNL1        0.0980
     20 N         144.4922  139.6737  164.2993 N.3     1  UNL1       -0.2892
     21 H         145.3799  139.1714  164.2909 H       1  UNL1        0.1237
     22 C         144.5912  140.7455  163.2546 C.3     1  UNL1        0.1307
     23 C         144.5821  141.4067  161.9082 C.3     1  UNL1        0.0245
     24 C         144.3140  139.9353  162.0231 C.3     1  UNL1        0.0245
     25 C         144.9029  141.9280  164.1233 C.3     1  UNL1        0.4088
     26 F         145.2145  143.1104  164.9920 F       1  UNL1       -0.1686
     27 F         146.3669  141.6181  164.0201 F       1  UNL1       -0.1686
     28 F         143.4389  142.2379  164.2266 F       1  UNL1       -0.1686
@<TRIPOS>BOND
     1    10     9    1
     2    10     1    1
     3     1     2   ar
     4     2     3   ar
     5     3    19    1
     6    19    20    1
     7    20    22    1
     8    22    25    1
     9    25    26    1
    10    25    27    1
    11    25    28    1
    12    22    23    1
    13    23    24    1
    14     3     4   ar
    15     4     5    1
    16     4     6   ar
    17     6     7   ar
    18     7     8    1
    19    10    11    1
    20    11    12    1
    21    12    13    1
    22    13    14    1
    23    14    15    1
    24    14    16    2
    25    16    10    1
    26     7     1   ar
    27    24    22    1
    28    20    21    1
    29    15    17    1
    30    15    18    1
@<TRIPOS>MOLECULE
*****
 28 30 0 0 0
SMALL
GASTEIGER

@<TRIPOS>ATOM
      1 C         141.6605  141.5237  166.6381 C.ar    1  UNL1        0.0252
      2 C         140.3225  141.0448  166.1582 C.ar    1  UNL1       -0.0009
      3 C         139.7667  141.5500  164.8598 C.ar    1  UNL1        0.0210
      4 C         140.5489  142.5340  164.0413 C.ar    1  UNL1        0.1397
      5 F         139.9930  143.0391  162.7428 F       1  UNL1       -0.2044
      6 C         141.8869  143.0129  164.5212 C.ar    1  UNL1        0.0587
      7 C         142.4427  142.5077  165.8196 C.ar    1  UNL1        0.1401
      8 F         143.7808  142.9866  166.2996 F       1  UNL1       -0.2044
      9 C         142.7468  139.9724  167.0015 C.3     1  UNL1        0.0291
     10 C         142.2164  141.0186  167.9365 C.3     1  UNL1        0.1080
     11 C         141.4931  142.2402  168.4206 C.3     1  UNL1        0.0388
     12 C         141.5098  142.5934  169.8783 C.3     1  UNL1        0.0671
     13 S         142.2499  141.7249  170.8520 S.3     1  UNL1       -0.0807
     14 C         142.9732  140.5033  170.3679 C.2     1  UNL1        0.1482
     15 N         143.7133  139.6348  171.3416 N.pl3   1  UNL1       -0.3380
     16 N         142.9565  140.1501  168.9102 N.2     1  UNL1       -0.2509
     17 H         143.7243  139.8666  172.2984 H       1  UNL1        0.1442
     18 H         144.1881  138.8330  171.0239 H       1  UNL1        0.1442
     19 C         138.4286  141.0711  164.3798 C.3     1  UNL1        0.0980
     20 N         138.1057  139.6064  164.3976 N.3     1  UNL1       -0.2892
     21 H         137.0925  139.5272  164.3111 H       1  UNL1        0.1237
     22 C         138.7010  138.6945  163.3661 C.3     1  UNL1        0.1307
     23 C         138.9505  138.0382  162.0406 C.3     1  UNL1        0.0245
     24 C         137.9120  139.1138  162.1613 C.3     1  UNL1        0.0245
     25 C         139.6968  137.9585  164.2128 C.3     1  UNL1        0.4088
     26 F         140.6926  137.2225  165.0593 F       1  UNL1       -0.1686
     27 F         140.8080  138.7607  163.6031 F       1  UNL1       -0.1686
     28 F         138.5855  137.1563  164.8223 F       1  UNL1       -0.1686
@<TRIPOS>BOND
     1    10     9    1
     2    10     1    1
     3     1     2   ar
     4     2     3   ar
     5     3    19    1
     6    19    20    1
     7    20    22    1
     8    22    25    1
     9    25    26    1
    10    25    27    1
    11    25    28    1
    12    22    23    1
    13    23    24    1
    14     3     4   ar
    15     4     5    1
    16     4     6   ar
    17     6     7   ar
    18     7     8    1
    19    10    11    1
    20    11    12    1
    21    12    13    1
    22    13    14    1
    23    14    15    1
    24    14    16    2
    25    16    10    1
    26     7     1   ar
    27    24    22    1
    28    20    21    1
    29    15    17    1
    30    15    18    1
@<TRIPOS>MOLECULE
*****
 28 30 0 0 0
SMALL
GASTEIGER

@<TRIPOS>ATOM
      1 C         141.4309  141.1629  166.3206 C.ar    1  UNL1        0.0252
      2 C         141.2589  142.5986  165.9218 C.ar    1  UNL1       -0.0009
      3 C         141.6902  143.0554  164.5597 C.ar    1  UNL1        0.0210
      4 C         142.2935  142.0765  163.5965 C.ar    1  UNL1        0.1397
      5 F         142.7249  142.5334  162.2344 F       1  UNL1       -0.2044
      6 C         142.4655  140.6408  163.9953 C.ar    1  UNL1        0.0587
      7 C         142.0342  140.1840  165.3574 C.ar    1  UNL1        0.1401
      8 F         142.2061  138.7482  165.7563 F       1  UNL1       -0.2044
      9 C         139.7333  140.4671  166.9148 C.3     1  UNL1        0.0291
     10 C         140.9995  140.7060  167.6827 C.3     1  UNL1        0.1080
     11 C         142.4155  141.1035  167.9776 C.3     1  UNL1        0.0388
     12 C         142.9604  140.9613  169.3679 C.3     1  UNL1        0.0671
     13 S         142.0893  140.4214  170.4633 S.3     1  UNL1       -0.0807
     14 C         140.6733  140.0239  170.1684 C.2     1  UNL1        0.1482
     15 N         139.8022  139.4840  171.2637 N.pl3   1  UNL1       -0.3380
     16 N         140.1284  140.1661  168.7781 N.2     1  UNL1       -0.2509
     17 H         140.1598  139.3906  172.1762 H       1  UNL1        0.1442
     18 H         138.8729  139.2231  171.0701 H       1  UNL1        0.1442
     19 C         141.5183  144.4912  164.1609 C.3     1  UNL1        0.0980
     20 N         140.1721  145.1439  164.2701 N.3     1  UNL1       -0.2892
     21 H         140.2945  146.1188  163.9964 H       1  UNL1        0.1237
     22 C         139.0148  144.6134  163.4770 C.3     1  UNL1        0.1307
     23 C         137.6741  144.0164  163.1668 C.3     1  UNL1        0.0245
     24 C         138.0850  144.2377  164.5923 C.3     1  UNL1        0.0245
     25 C         139.5428  144.8050  162.0860 C.3     1  UNL1        0.4088
     26 F         140.0707  144.9965  160.6952 F       1  UNL1       -0.1686
     27 F         139.4105  146.2911  162.2405 F       1  UNL1       -0.1686
     28 F         139.6750  143.3188  161.9317 F       1  UNL1       -0.1686
@<TRIPOS>BOND
     1    10     9    1
     2    10     1    1
     3     1     2   ar
     4     2     3   ar
     5     3    19    1
     6    19    20    1
     7    20    22    1
     8    22    25    1
     9    25    26    1
    10    25    27    1
    11    25    28    1
    12    22    23    1
    13    23    24    1
    14     3     4   ar
    15     4     5    1
    16     4     6   ar
    17     6     7   ar
    18     7     8    1
    19    10    11    1
    20    11    12    1
    21    12    13    1
    22    13    14    1
    23    14    15    1
    24    14    16    2
    25    16    10    1
    26     7     1   ar
    27    24    22    1
    28    20    21    1
    29    15    17    1
    30    15    18    1
@<TRIPOS>MOLECULE
*****
 28 30 0 0 0
SMALL
GASTEIGER

@<TRIPOS>ATOM
      1 C         139.0448  141.8919  164.5425 C.ar    1  UNL1        0.0252
      2 C         139.6320  141.6132  165.8943 C.ar    1  UNL1       -0.0009
      3 C         139.3597  140.3045  166.5749 C.ar    1  UNL1        0.0210
      4 C         138.5001  139.2747  165.9037 C.ar    1  UNL1        0.1397
      5 F         138.2278  137.9660  166.5844 F       1  UNL1       -0.2044
      6 C         137.9128  139.5535  164.5519 C.ar    1  UNL1        0.0587
      7 C         138.1852  140.8621  163.8713 C.ar    1  UNL1        0.1401
      8 F         137.5979  141.1409  162.5195 F       1  UNL1       -0.2044
      9 C         138.0499  143.5433  164.5877 C.3     1  UNL1        0.0291
     10 C         139.3171  143.2006  163.8618 C.3     1  UNL1        0.1080
     11 C         140.4897  142.4035  163.3724 C.3     1  UNL1        0.0388
     12 C         141.4945  143.0340  162.4544 C.3     1  UNL1        0.0671
     13 S         141.3267  144.4617  162.0258 S.3     1  UNL1       -0.0807
     14 C         140.1541  145.2588  162.5152 C.2     1  UNL1        0.1482
     15 N         139.9863  146.6865  162.0867 N.pl3   1  UNL1       -0.3380
     16 N         139.1493  144.6283  163.4333 N.2     1  UNL1       -0.2509
     17 H         140.6458  147.1004  161.4842 H       1  UNL1        0.1442
     18 H         139.2167  147.2097  162.4079 H       1  UNL1        0.1442
     19 C         139.9469  140.0257  167.9268 C.3     1  UNL1        0.0980
     20 N         140.0603  141.1285  168.9372 N.3     1  UNL1       -0.2892
     21 H         139.9410  140.7002  169.8552 H       1  UNL1        0.1237
     22 C         141.3082  141.9580  169.0052 C.3     1  UNL1        0.1307
     23 C         142.7509  142.3474  168.8739 C.3     1  UNL1        0.0245
     24 C         142.3022  140.9788  168.4549 C.3     1  UNL1        0.0245
     25 C         140.7475  143.2254  169.5792 C.3     1  UNL1        0.4088
     26 F         140.1869  144.4928  170.1532 F       1  UNL1       -0.1686
     27 F         141.2256  142.8198  170.9419 F       1  UNL1       -0.1686
     28 F         140.2695  143.6310  168.2165 F       1  UNL1       -0.1686
@<TRIPOS>BOND
     1    10     9    1
     2    10     1    1
     3     1     2   ar
     4     2     3   ar
     5     3    19    1
     6    19    20    1
     7    20    22    1
     8    22    25    1
     9    25    26    1
    10    25    27    1
    11    25    28    1
    12    22    23    1
    13    23    24    1
    14     3     4   ar
    15     4     5    1
    16     4     6   ar
    17     6     7   ar
    18     7     8    1
    19    10    11    1
    20    11    12    1
    21    12    13    1
    22    13    14    1
    23    14    15    1
    24    14    16    2
    25    16    10    1
    26     7     1   ar
    27    24    22    1
    28    20    21    1
    29    15    17    1
    30    15    18    1
@<TRIPOS>MOLECULE
*****
 28 30 0 0 0
SMALL
GASTEIGER

@<TRIPOS>ATOM
      1 C         139.2075  141.7471  163.4518 C.ar    1  UNL1        0.0252
      2 C         140.2018  140.7041  163.0354 C.ar    1  UNL1       -0.0009
      3 C         140.1871  139.3522  163.6851 C.ar    1  UNL1        0.0210
      4 C         139.1781  139.0433  164.7511 C.ar    1  UNL1        0.1397
      5 F         139.1635  137.6913  165.4008 F       1  UNL1       -0.2044
      6 C         138.1838  140.0863  165.1675 C.ar    1  UNL1        0.0587
      7 C         138.1985  141.4382  164.5179 C.ar    1  UNL1        0.1401
      8 F         137.2041  142.4812  164.9343 F       1  UNL1       -0.2044
      9 C         138.0932  142.4603  162.0489 C.3     1  UNL1        0.0291
     10 C         139.2221  143.0991  162.8022 C.3     1  UNL1        0.1080
     11 C         140.3460  143.2683  163.7811 C.3     1  UNL1        0.0388
     12 C         141.0924  144.5676  163.8488 C.3     1  UNL1        0.0671
     13 S         140.7149  145.6977  162.9375 S.3     1  UNL1       -0.0807
     14 C         139.5911  145.5285  161.9586 C.2     1  UNL1        0.1482
     15 N         139.2136  146.6586  161.0473 N.pl3   1  UNL1       -0.3380
     16 N         138.8447  144.2292  161.8909 N.2     1  UNL1       -0.2509
     17 H         139.7035  147.5114  161.0917 H       1  UNL1        0.1442
     18 H         138.4760  146.5476  160.4048 H       1  UNL1        0.1442
     19 C         141.1815  138.3091  163.2687 C.3     1  UNL1        0.0980
     20 N         142.2483  137.8656  164.2254 N.3     1  UNL1       -0.2892
     21 H         142.7196  137.0710  163.7931 H       1  UNL1        0.1237
     22 C         143.3196  138.8251  164.6515 C.3     1  UNL1        0.1307
     23 C         144.4848  139.7658  164.5655 C.3     1  UNL1        0.0245
     24 C         143.9619  139.1041  163.3251 C.3     1  UNL1        0.0245
     25 C         143.0493  138.8792  166.1260 C.3     1  UNL1        0.4088
     26 F         142.7790  138.9334  167.6004 F       1  UNL1       -0.1686
     27 F         142.2547  140.1370  165.9342 F       1  UNL1       -0.1686
     28 F         143.8438  137.6215  166.3177 F       1  UNL1       -0.1686
@<TRIPOS>BOND
     1    10     9    1
     2    10     1    1
     3     1     2   ar
     4     2     3   ar
     5     3    19    1
     6    19    20    1
     7    20    22    1
     8    22    25    1
     9    25    26    1
    10    25    27    1
    11    25    28    1
    12    22    23    1
    13    23    24    1
    14     3     4   ar
    15     4     5    1
    16     4     6   ar
    17     6     7   ar
    18     7     8    1
    19    10    11    1
    20    11    12    1
    21    12    13    1
    22    13    14    1
    23    14    15    1
    24    14    16    2
    25    16    10    1
    26     7     1   ar
    27    24    22    1
    28    20    21    1
    29    15    17    1
    30    15    18    1
