@<TRIPOS>MOLECULE
*****
 31 33 0 0 0
SMALL
GASTEIGER

@<TRIPOS>ATOM
      1 N         140.6353  142.8058  167.6235 N.am    1  UNL1       -0.2753
      2 C         141.3519  142.4361  166.3587 C.2     1  UNL1        0.2498
      3 O         142.3559  141.3217  166.3638 O.2     1  UNL1       -0.2698
      4 H         139.9763  143.5372  167.6201 H       1  UNL1        0.1556
      5 C         141.0645  143.1808  165.0886 C.ar    1  UNL1        0.0537
      6 C         142.1185  144.0554  164.4771 C.ar    1  UNL1        0.0047
      7 C         141.8311  144.8000  163.2072 C.ar    1  UNL1        0.0047
      8 C         140.4896  144.6701  162.5487 C.ar    1  UNL1        0.0536
      9 C         139.4355  143.7955  163.1603 C.ar    1  UNL1        0.0047
     10 C         139.7230  143.0509  164.4302 C.ar    1  UNL1        0.0047
     11 C         140.2022  145.4148  161.2787 C.2     1  UNL1        0.2490
     12 O         139.1880  146.5200  161.2705 O.2     1  UNL1       -0.2699
     13 N         140.9289  145.0543  160.0170 N.am    1  UNL1       -0.2761
     14 C         141.9431  143.9491  160.0253 C.3     1  UNL1        0.0937
     15 C         142.6698  143.5887  158.7635 C.3     1  UNL1        0.0216
     16 C         142.3824  144.3334  157.4936 C.3     1  UNL1        0.0035
     17 C         141.3682  145.4386  157.4853 C.3     1  UNL1        0.0216
     18 C         140.6415  145.7990  158.7470 C.3     1  UNL1        0.0937
     19 C         140.3029  140.7611  169.3129 C.ar    1  UNL1        0.0740
     20 C         140.8775  140.3822  170.6456 C.ar    1  UNL1        0.0133
     21 C         141.8525  141.4481  171.0500 C.ar    1  UNL1        0.0368
     22 S         141.8804  142.4857  169.9670 S.2     1  UNL1       -0.0715
     23 C         140.9227  142.0611  168.8935 C.ar    1  UNL1        0.0853
     24 C         138.4909  138.9187  166.3008 C.2     1  UNL1        0.4078
     25 O         137.2548  138.4106  166.9817 O.2     1  UNL1       -0.2260
     26 N         139.5069  139.7022  167.0778 N.am    1  UNL1       -0.2174
     27 C         139.2868  139.9776  168.5359 C.2     1  UNL1        0.2557
     28 O         138.0507  139.4695  169.2168 O.2     1  UNL1       -0.2696
     29 H         140.3183  140.0357  166.6309 H       1  UNL1        0.1612
     30 C         138.6075  139.7586  163.8450 C.3     1  UNL1        0.2574
     31 O         138.7111  138.6434  164.8428 O.3     1  UNL1       -0.4303
@<TRIPOS>BOND
     1    30    31    1
     2    31    24    1
     3    24    25    2
     4    24    26   am
     5    26    27   am
     6    27    28    2
     7    27    19    1
     8    19    20   ar
     9    20    21   ar
    10    21    22   ar
    11    22    23   ar
    12    23     1    1
    13     1     2   am
    14     2     3    2
    15     2     5    1
    16     5     6   ar
    17     6     7   ar
    18     7     8   ar
    19     8    11    1
    20    11    12    2
    21    11    13   am
    22    13    14    1
    23    14    15    1
    24    15    16    1
    25    16    17    1
    26    17    18    1
    27     8     9   ar
    28     9    10   ar
    29    23    19   ar
    30    10     5   ar
    31    18    13    1
    32    26    29    1
    33     1     4    1
@<TRIPOS>MOLECULE
*****
 31 33 0 0 0
SMALL
GASTEIGER

@<TRIPOS>ATOM
      1 N         136.5564  142.0770  156.6239 N.am    1  UNL1       -0.2753
      2 C         137.5078  141.0089  157.0754 C.2     1  UNL1        0.2498
      3 O         137.7808  139.8263  156.1940 O.2     1  UNL1       -0.2698
      4 H         136.3772  142.8532  157.2025 H       1  UNL1        0.1556
      5 C         138.1863  141.1234  158.4083 C.ar    1  UNL1        0.0537
      6 C         139.2664  142.1435  158.6149 C.ar    1  UNL1        0.0047
      7 C         139.9448  142.2579  159.9478 C.ar    1  UNL1        0.0047
      8 C         139.5432  141.3522  161.0740 C.ar    1  UNL1        0.0536
      9 C         138.4631  140.3321  160.8674 C.ar    1  UNL1        0.0047
     10 C         137.7847  140.2177  159.5345 C.ar    1  UNL1        0.0047
     11 C         140.2217  141.4666  162.4069 C.2     1  UNL1        0.2490
     12 O         141.3813  140.5743  162.7373 O.2     1  UNL1       -0.2699
     13 N         139.7406  142.4733  163.4094 N.am    1  UNL1       -0.2761
     14 C         138.5810  143.3656  163.0791 C.3     1  UNL1        0.0937
     15 C         138.0999  144.3724  164.0817 C.3     1  UNL1        0.0216
     16 C         138.7785  144.4868  165.4145 C.3     1  UNL1        0.0035
     17 C         139.9381  143.5945  165.7448 C.3     1  UNL1        0.0216
     18 C         140.4192  142.5878  164.7423 C.3     1  UNL1        0.0937
     19 C         134.6198  141.1974  155.0049 C.ar    1  UNL1        0.0740
     20 C         134.3028  141.3552  153.5473 C.ar    1  UNL1        0.0133
     21 C         135.3649  142.2179  152.9326 C.ar    1  UNL1        0.0368
     22 S         136.3384  142.5933  154.0103 S.2     1  UNL1       -0.0715
     23 C         135.8779  141.9626  155.2910 C.ar    1  UNL1        0.0853
     24 C         131.5468  139.4300  156.7888 C.2     1  UNL1        0.4078
     25 O         132.2185  138.8423  157.9944 O.2     1  UNL1       -0.2260
     26 N         132.3472  140.2151  155.7924 N.am    1  UNL1       -0.2174
     27 C         133.8195  140.4124  156.0014 C.2     1  UNL1        0.2557
     28 O         134.4912  139.8247  157.2069 O.2     1  UNL1       -0.2696
     29 H         131.9063  140.6008  155.0011 H       1  UNL1        0.1612
     30 C         129.5557  137.9087  156.1026 C.3     1  UNL1        0.2574
     31 O         130.0746  139.2327  156.5798 O.3     1  UNL1       -0.4303
@<TRIPOS>BOND
     1    30    31    1
     2    31    24    1
     3    24    25    2
     4    24    26   am
     5    26    27   am
     6    27    28    2
     7    27    19    1
     8    19    20   ar
     9    20    21   ar
    10    21    22   ar
    11    22    23   ar
    12    23     1    1
    13     1     2   am
    14     2     3    2
    15     2     5    1
    16     5     6   ar
    17     6     7   ar
    18     7     8   ar
    19     8    11    1
    20    11    12    2
    21    11    13   am
    22    13    14    1
    23    14    15    1
    24    15    16    1
    25    16    17    1
    26    17    18    1
    27     8     9   ar
    28     9    10   ar
    29    23    19   ar
    30    10     5   ar
    31    18    13    1
    32    26    29    1
    33     1     4    1
@<TRIPOS>MOLECULE
*****
 31 33 0 0 0
SMALL
GASTEIGER

@<TRIPOS>ATOM
      1 N         142.4529  137.5902  159.1684 N.am    1  UNL1       -0.2753
      2 C         143.2937  138.6118  159.8751 C.2     1  UNL1        0.2498
      3 O         144.1208  139.5803  159.0827 O.2     1  UNL1       -0.2698
      4 H         141.9101  136.9545  159.6885 H       1  UNL1        0.1556
      5 C         143.3074  138.6649  161.3741 C.ar    1  UNL1        0.0537
      6 C         144.3686  139.4493  162.0871 C.ar    1  UNL1        0.0047
      7 C         144.3823  139.5023  163.5861 C.ar    1  UNL1        0.0047
      8 C         143.3347  138.7710  164.3720 C.ar    1  UNL1        0.0536
      9 C         142.2735  137.9865  163.6590 C.ar    1  UNL1        0.0047
     10 C         142.2598  137.9335  162.1601 C.ar    1  UNL1        0.0047
     11 C         143.3484  138.8240  165.8711 C.2     1  UNL1        0.2490
     12 O         144.1769  137.8448  166.6487 O.2     1  UNL1       -0.2699
     13 N         142.5336  139.8563  166.5925 N.am    1  UNL1       -0.2761
     14 C         141.7051  140.8356  165.8149 C.3     1  UNL1        0.0937
     15 C         140.8903  141.8679  166.5364 C.3     1  UNL1        0.0216
     16 C         140.9040  141.9210  168.0353 C.3     1  UNL1        0.0035
     17 C         141.7325  140.9417  168.8129 C.3     1  UNL1        0.0216
     18 C         142.5473  139.9094  168.0915 C.3     1  UNL1        0.0937
     19 C         142.9257  136.3983  156.8230 C.ar    1  UNL1        0.0740
     20 C         142.7238  136.7709  155.3841 C.ar    1  UNL1        0.0133
     21 C         142.1125  138.1401  155.3412 C.ar    1  UNL1        0.0368
     22 S         141.9366  138.6136  156.7537 S.2     1  UNL1       -0.0715
     23 C         142.4392  137.5371  157.6694 C.ar    1  UNL1        0.0853
     24 C         144.6757  132.8366  156.8643 C.2     1  UNL1        0.4078
     25 O         144.6826  132.5412  158.3349 O.2     1  UNL1       -0.2260
     26 N         144.0901  134.1223  156.3604 N.am    1  UNL1       -0.2174
     27 C         143.5113  135.1126  157.3270 C.2     1  UNL1        0.2557
     28 O         143.5182  134.8172  158.7976 O.2     1  UNL1       -0.2696
     29 H         144.0856  134.3161  155.3952 H       1  UNL1        0.1612
     30 C         144.7314  130.4409  155.8606 C.3     1  UNL1        0.2574
     31 O         145.2544  131.8463  155.8977 O.3     1  UNL1       -0.4303
@<TRIPOS>BOND
     1    30    31    1
     2    31    24    1
     3    24    25    2
     4    24    26   am
     5    26    27   am
     6    27    28    2
     7    27    19    1
     8    19    20   ar
     9    20    21   ar
    10    21    22   ar
    11    22    23   ar
    12    23     1    1
    13     1     2   am
    14     2     3    2
    15     2     5    1
    16     5     6   ar
    17     6     7   ar
    18     7     8   ar
    19     8    11    1
    20    11    12    2
    21    11    13   am
    22    13    14    1
    23    14    15    1
    24    15    16    1
    25    16    17    1
    26    17    18    1
    27     8     9   ar
    28     9    10   ar
    29    23    19   ar
    30    10     5   ar
    31    18    13    1
    32    26    29    1
    33     1     4    1
@<TRIPOS>MOLECULE
*****
 31 33 0 0 0
SMALL
GASTEIGER

@<TRIPOS>ATOM
      1 N         139.8274  139.3052  160.2879 N.am    1  UNL1       -0.2753
      2 C         138.5299  139.5015  161.0145 C.2     1  UNL1        0.2498
      3 O         137.2713  139.7684  160.2433 O.2     1  UNL1       -0.2698
      4 H         140.6534  139.1301  160.7941 H       1  UNL1        0.1556
      5 C         138.4910  139.4311  162.5124 C.ar    1  UNL1        0.0537
      6 C         138.9635  138.1944  163.2176 C.ar    1  UNL1        0.0047
      7 C         138.9246  138.1240  164.7154 C.ar    1  UNL1        0.0047
      8 C         138.4132  139.2902  165.5080 C.ar    1  UNL1        0.0536
      9 C         137.9407  140.5269  164.8028 C.ar    1  UNL1        0.0047
     10 C         137.9796  140.5973  163.3050 C.ar    1  UNL1        0.0047
     11 C         138.3743  139.2198  167.0059 C.2     1  UNL1        0.2490
     12 O         137.4805  138.2262  167.6870 O.2     1  UNL1       -0.2699
     13 N         139.2291  140.1428  167.8226 N.am    1  UNL1       -0.2761
     14 C         140.1230  141.1364  167.1415 C.3     1  UNL1        0.0937
     15 C         140.9779  142.0595  167.9583 C.3     1  UNL1        0.0216
     16 C         140.9389  141.9890  169.4561 C.3     1  UNL1        0.0035
     17 C         140.0451  140.9955  170.1372 C.3     1  UNL1        0.0216
     18 C         139.1902  140.0724  169.3205 C.3     1  UNL1        0.0937
     19 C         139.8689  140.6291  157.9661 C.ar    1  UNL1        0.0740
     20 C         139.9136  140.2331  156.5200 C.ar    1  UNL1        0.0133
     21 C         139.9386  138.7349  156.4501 C.ar    1  UNL1        0.0368
     22 S         139.9094  138.2050  157.8532 S.2     1  UNL1       -0.0715
     23 C         139.8663  139.3757  158.7900 C.ar    1  UNL1        0.0853
     24 C         140.9962  144.0035  159.7246 C.2     1  UNL1        0.4078
     25 O         139.7616  144.8383  159.5541 O.2     1  UNL1       -0.2260
     26 N         141.0319  142.6005  159.1953 N.am    1  UNL1       -0.2174
     27 C         139.8331  142.0321  158.4954 C.2     1  UNL1        0.2557
     28 O         138.5985  142.8668  158.3248 O.2     1  UNL1       -0.2696
     29 H         141.8422  142.0527  159.3072 H       1  UNL1        0.1612
     30 C         142.5554  144.0961  161.8006 C.3     1  UNL1        0.2574
     31 O         142.1950  144.5719  160.4245 O.3     1  UNL1       -0.4303
@<TRIPOS>BOND
     1    30    31    1
     2    31    24    1
     3    24    25    2
     4    24    26   am
     5    26    27   am
     6    27    28    2
     7    27    19    1
     8    19    20   ar
     9    20    21   ar
    10    21    22   ar
    11    22    23   ar
    12    23     1    1
    13     1     2   am
    14     2     3    2
    15     2     5    1
    16     5     6   ar
    17     6     7   ar
    18     7     8   ar
    19     8    11    1
    20    11    12    2
    21    11    13   am
    22    13    14    1
    23    14    15    1
    24    15    16    1
    25    16    17    1
    26    17    18    1
    27     8     9   ar
    28     9    10   ar
    29    23    19   ar
    30    10     5   ar
    31    18    13    1
    32    26    29    1
    33     1     4    1
@<TRIPOS>MOLECULE
*****
 31 33 0 0 0
SMALL
GASTEIGER

@<TRIPOS>ATOM
      1 N         142.2396  139.1490  161.1273 N.am    1  UNL1       -0.2753
      2 C         141.3145  138.5907  162.1677 C.2     1  UNL1        0.2498
      3 O         140.1246  137.7766  161.7540 O.2     1  UNL1       -0.2698
      4 H         143.0206  139.6834  161.3989 H       1  UNL1        0.1556
      5 C         141.5793  138.8466  163.6219 C.ar    1  UNL1        0.0537
      6 C         142.9696  139.1646  164.0864 C.ar    1  UNL1        0.0047
      7 C         143.2344  139.4204  165.5405 C.ar    1  UNL1        0.0047
      8 C         142.1088  139.3582  166.5300 C.ar    1  UNL1        0.0536
      9 C         140.7185  139.0402  166.0655 C.ar    1  UNL1        0.0047
     10 C         140.4538  138.7843  164.6114 C.ar    1  UNL1        0.0047
     11 C         142.3736  139.6140  167.9842 C.2     1  UNL1        0.2490
     12 O         143.1728  138.6295  168.7855 O.2     1  UNL1       -0.2699
     13 N         141.8393  140.8543  168.6370 N.am    1  UNL1       -0.2761
     14 C         141.0402  141.8388  167.8356 C.3     1  UNL1        0.0937
     15 C         140.5059  143.0792  168.4885 C.3     1  UNL1        0.0216
     16 C         140.7707  143.3349  169.9426 C.3     1  UNL1        0.0035
     17 C         141.5698  142.3504  170.7439 C.3     1  UNL1        0.0216
     18 C         142.1041  141.1101  170.0911 C.3     1  UNL1        0.0937
     19 C         140.9712  139.6109  158.8202 C.ar    1  UNL1        0.0740
     20 C         141.0433  139.0360  157.4366 C.ar    1  UNL1        0.0133
     21 C         142.0915  137.9629  157.4345 C.ar    1  UNL1        0.0368
     22 S         142.6672  137.8747  158.8169 S.2     1  UNL1       -0.0715
     23 C         141.9748  138.8932  159.6732 C.ar    1  UNL1        0.0853
     24 C         138.1953  141.5777  160.8638 C.2     1  UNL1        0.4078
     25 O         138.2261  142.9095  160.1744 O.2     1  UNL1       -0.2260
     26 N         139.1104  140.4782  160.4123 N.am    1  UNL1       -0.2174
     27 C         140.0563  140.7105  159.2715 C.2     1  UNL1        0.2557
     28 O         140.0871  142.0423  158.5821 O.2     1  UNL1       -0.2696
     29 H         139.0901  139.6041  160.8648 H       1  UNL1        0.1612
     30 C         137.4211  142.1037  163.2873 C.3     1  UNL1        0.2574
     31 O         137.2495  141.3454  162.0046 O.3     1  UNL1       -0.4303
@<TRIPOS>BOND
     1    30    31    1
     2    31    24    1
     3    24    25    2
     4    24    26   am
     5    26    27   am
     6    27    28    2
     7    27    19    1
     8    19    20   ar
     9    20    21   ar
    10    21    22   ar
    11    22    23   ar
    12    23     1    1
    13     1     2   am
    14     2     3    2
    15     2     5    1
    16     5     6   ar
    17     6     7   ar
    18     7     8   ar
    19     8    11    1
    20    11    12    2
    21    11    13   am
    22    13    14    1
    23    14    15    1
    24    15    16    1
    25    16    17    1
    26    17    18    1
    27     8     9   ar
    28     9    10   ar
    29    23    19   ar
    30    10     5   ar
    31    18    13    1
    32    26    29    1
    33     1     4    1
@<TRIPOS>MOLECULE
*****
 31 33 0 0 0
SMALL
GASTEIGER

@<TRIPOS>ATOM
      1 N         140.8233  142.4954  167.4696 N.am    1  UNL1       -0.2753
      2 C         140.0159  142.0676  166.2801 C.2     1  UNL1        0.2498
      3 O         139.1933  140.8149  166.3432 O.2     1  UNL1       -0.2698
      4 H         141.3632  143.3176  167.4282 H       1  UNL1        0.1556
      5 C         140.0312  142.8925  165.0273 C.ar    1  UNL1        0.0537
      6 C         138.8880  142.8082  164.0599 C.ar    1  UNL1        0.0047
      7 C         138.9033  143.6331  162.8072 C.ar    1  UNL1        0.0047
      8 C         140.0618  144.5422  162.5219 C.ar    1  UNL1        0.0536
      9 C         141.2050  144.6264  163.4893 C.ar    1  UNL1        0.0047
     10 C         141.1897  143.8015  164.7420 C.ar    1  UNL1        0.0047
     11 C         140.0770  145.3671  161.2691 C.2     1  UNL1        0.2490
     12 O         139.2010  146.5797  161.1589 O.2     1  UNL1       -0.2699
     13 N         140.9683  144.9794  160.1266 N.am    1  UNL1       -0.2761
     14 C         141.8443  143.7668  160.2369 C.3     1  UNL1        0.0937
     15 C         142.7356  143.3791  159.0943 C.3     1  UNL1        0.0216
     16 C         142.7508  144.2039  157.8416 C.3     1  UNL1        0.0035
     17 C         141.8748  145.4165  157.7314 C.3     1  UNL1        0.0216
     18 C         140.9835  145.8043  158.8738 C.3     1  UNL1        0.0937
     19 C         141.5317  140.3736  168.9330 C.ar    1  UNL1        0.0740
     20 C         141.2373  139.8993  170.3253 C.ar    1  UNL1        0.0133
     21 C         140.3318  140.9031  170.9752 C.ar    1  UNL1        0.0368
     22 S         140.0665  141.9979  169.9845 S.2     1  UNL1       -0.0715
     23 C         140.8081  141.6705  168.7224 C.ar    1  UNL1        0.0853
     24 C         143.2185  139.3831  165.4799 C.2     1  UNL1        0.4078
     25 O         144.1294  138.2744  165.9171 O.2     1  UNL1       -0.2260
     26 N         142.3527  140.0828  166.4852 N.am    1  UNL1       -0.2174
     27 C         142.3976  139.6738  167.9278 C.2     1  UNL1        0.2557
     28 O         143.3084  138.5651  168.3649 O.2     1  UNL1       -0.2696
     29 H         141.7549  140.8105  166.1983 H       1  UNL1        0.1612
     30 C         144.3501  139.5267  163.1457 C.3     1  UNL1        0.2574
     31 O         143.1736  139.7922  164.0375 O.3     1  UNL1       -0.4303
@<TRIPOS>BOND
     1    30    31    1
     2    31    24    1
     3    24    25    2
     4    24    26   am
     5    26    27   am
     6    27    28    2
     7    27    19    1
     8    19    20   ar
     9    20    21   ar
    10    21    22   ar
    11    22    23   ar
    12    23     1    1
    13     1     2   am
    14     2     3    2
    15     2     5    1
    16     5     6   ar
    17     6     7   ar
    18     7     8   ar
    19     8    11    1
    20    11    12    2
    21    11    13   am
    22    13    14    1
    23    14    15    1
    24    15    16    1
    25    16    17    1
    26    17    18    1
    27     8     9   ar
    28     9    10   ar
    29    23    19   ar
    30    10     5   ar
    31    18    13    1
    32    26    29    1
    33     1     4    1
@<TRIPOS>MOLECULE
*****
 31 33 0 0 0
SMALL
GASTEIGER

@<TRIPOS>ATOM
      1 N         137.0661  140.0839  156.5188 N.am    1  UNL1       -0.2753
      2 C         137.6915  140.9646  157.5595 C.2     1  UNL1        0.2498
      3 O         137.4700  142.4476  157.5187 O.2     1  UNL1       -0.2698
      4 H         137.2115  139.1106  156.5456 H       1  UNL1        0.1556
      5 C         138.5384  140.3623  158.6413 C.ar    1  UNL1        0.0537
      6 C         139.6757  139.4519  158.2840 C.ar    1  UNL1        0.0047
      7 C         140.5225  138.8497  159.3657 C.ar    1  UNL1        0.0047
      8 C         140.2321  139.1578  160.8047 C.ar    1  UNL1        0.0536
      9 C         139.0948  140.0683  161.1619 C.ar    1  UNL1        0.0047
     10 C         138.2479  140.6705  160.0802 C.ar    1  UNL1        0.0047
     11 C         141.0790  138.5555  161.8864 C.2     1  UNL1        0.2490
     12 O         140.6589  137.2730  162.5411 O.2     1  UNL1       -0.2699
     13 N         142.3458  139.2358  162.3133 N.am    1  UNL1       -0.2761
     14 C         142.7659  140.5183  161.6585 C.3     1  UNL1        0.0937
     15 C         144.0328  141.1985  162.0855 C.3     1  UNL1        0.0216
     16 C         144.8796  140.5962  163.1672 C.3     1  UNL1        0.0035
     17 C         144.4596  139.3137  163.8219 C.3     1  UNL1        0.0216
     18 C         143.1927  138.6335  163.3950 C.3     1  UNL1        0.0937
     19 C         134.7259  140.5918  155.3309 C.ar    1  UNL1        0.0740
     20 C         134.3008  141.3359  154.0998 C.ar    1  UNL1        0.0133
     21 C         135.5313  141.8903  153.4451 C.ar    1  UNL1        0.0368
     22 S         136.7170  141.4887  154.2716 S.2     1  UNL1       -0.0715
     23 C         136.2192  140.6862  155.4370 C.ar    1  UNL1        0.0853
     24 C         131.5169  138.7967  156.8242 C.2     1  UNL1        0.4078
     25 O         132.0002  138.4519  158.2017 O.2     1  UNL1       -0.2260
     26 N         132.4255  139.5100  155.8673 N.am    1  UNL1       -0.2174
     27 C         133.8174  139.8785  156.2878 C.2     1  UNL1        0.2557
     28 O         134.3007  139.5337  157.6653 O.2     1  UNL1       -0.2696
     29 H         132.1083  139.7363  154.9632 H       1  UNL1        0.1612
     30 C         129.3185  137.4744  157.2340 C.3     1  UNL1        0.2574
     31 O         130.1251  138.4282  156.4036 O.3     1  UNL1       -0.4303
@<TRIPOS>BOND
     1    30    31    1
     2    31    24    1
     3    24    25    2
     4    24    26   am
     5    26    27   am
     6    27    28    2
     7    27    19    1
     8    19    20   ar
     9    20    21   ar
    10    21    22   ar
    11    22    23   ar
    12    23     1    1
    13     1     2   am
    14     2     3    2
    15     2     5    1
    16     5     6   ar
    17     6     7   ar
    18     7     8   ar
    19     8    11    1
    20    11    12    2
    21    11    13   am
    22    13    14    1
    23    14    15    1
    24    15    16    1
    25    16    17    1
    26    17    18    1
    27     8     9   ar
    28     9    10   ar
    29    23    19   ar
    30    10     5   ar
    31    18    13    1
    32    26    29    1
    33     1     4    1
@<TRIPOS>MOLECULE
*****
 31 33 0 0 0
SMALL
GASTEIGER

@<TRIPOS>ATOM
      1 N         143.2074  138.1744  159.5922 N.am    1  UNL1       -0.2753
      2 C         142.1558  138.6571  160.5468 C.2     1  UNL1        0.2498
      3 O         140.8495  139.1764  160.0236 O.2     1  UNL1       -0.2698
      4 H         144.0648  137.8335  159.9356 H       1  UNL1        0.1556
      5 C         142.4106  138.6204  162.0246 C.ar    1  UNL1        0.0537
      6 C         143.5269  139.4309  162.6135 C.ar    1  UNL1        0.0047
      7 C         143.7816  139.3942  164.0912 C.ar    1  UNL1        0.0047
      8 C         142.9201  138.5470  164.9800 C.ar    1  UNL1        0.0536
      9 C         141.8038  137.7364  164.3911 C.ar    1  UNL1        0.0047
     10 C         141.5491  137.7731  162.9134 C.ar    1  UNL1        0.0047
     11 C         143.1749  138.5103  166.4578 C.2     1  UNL1        0.2490
     12 O         144.3096  137.6949  167.0032 O.2     1  UNL1       -0.2699
     13 N         142.2950  139.2891  167.3901 N.am    1  UNL1       -0.2761
     14 C         141.1603  140.1045  166.8447 C.3     1  UNL1        0.0937
     15 C         140.2803  140.8833  167.7772 C.3     1  UNL1        0.0216
     16 C         140.5352  140.8466  169.2549 C.3     1  UNL1        0.0035
     17 C         141.6699  140.0311  169.8003 C.3     1  UNL1        0.0216
     18 C         142.5498  139.2524  168.8679 C.3     1  UNL1        0.0937
     19 C         143.4344  139.2654  157.1625 C.ar    1  UNL1        0.0740
     20 C         142.9508  138.9058  155.7889 C.ar    1  UNL1        0.0133
     21 C         142.1701  137.6291  155.8919 C.ar    1  UNL1        0.0368
     22 S         142.1712  137.1997  157.3292 S.2     1  UNL1       -0.0715
     23 C         142.9526  138.2111  158.1144 C.ar    1  UNL1        0.0853
     24 C         146.1188  142.1791  156.9279 C.2     1  UNL1        0.4078
     25 O         145.8982  142.8740  158.2388 O.2     1  UNL1       -0.2260
     26 N         145.2975  140.9762  156.5692 N.am    1  UNL1       -0.2174
     27 C         144.2556  140.4683  157.5213 C.2     1  UNL1        0.2557
     28 O         144.0350  141.1632  158.8322 O.2     1  UNL1       -0.2696
     29 H         145.4423  140.5201  155.7088 H       1  UNL1        0.1612
     30 C         148.2593  141.7774  155.5114 C.3     1  UNL1        0.2574
     31 O         147.1607  142.6869  155.9757 O.3     1  UNL1       -0.4303
@<TRIPOS>BOND
     1    30    31    1
     2    31    24    1
     3    24    25    2
     4    24    26   am
     5    26    27   am
     6    27    28    2
     7    27    19    1
     8    19    20   ar
     9    20    21   ar
    10    21    22   ar
    11    22    23   ar
    12    23     1    1
    13     1     2   am
    14     2     3    2
    15     2     5    1
    16     5     6   ar
    17     6     7   ar
    18     7     8   ar
    19     8    11    1
    20    11    12    2
    21    11    13   am
    22    13    14    1
    23    14    15    1
    24    15    16    1
    25    16    17    1
    26    17    18    1
    27     8     9   ar
    28     9    10   ar
    29    23    19   ar
    30    10     5   ar
    31    18    13    1
    32    26    29    1
    33     1     4    1
@<TRIPOS>MOLECULE
*****
 31 33 0 0 0
SMALL
GASTEIGER

@<TRIPOS>ATOM
      1 N         141.4838  140.2302  166.9463 N.am    1  UNL1       -0.2753
      2 C         142.4492  141.0942  166.1904 C.2     1  UNL1        0.2498
      3 O         143.1054  142.2587  166.8712 O.2     1  UNL1       -0.2698
      4 H         141.0531  139.4660  166.4995 H       1  UNL1        0.1556
      5 C         142.7585  140.7937  164.7537 C.ar    1  UNL1        0.0537
      6 C         144.1841  140.6765  164.3021 C.ar    1  UNL1        0.0047
      7 C         144.4933  140.3760  162.8654 C.ar    1  UNL1        0.0047
      8 C         143.3770  140.1927  161.8804 C.ar    1  UNL1        0.0536
      9 C         141.9514  140.3099  162.3320 C.ar    1  UNL1        0.0047
     10 C         141.6422  140.6104  163.7687 C.ar    1  UNL1        0.0047
     11 C         143.6863  139.8922  160.4437 C.2     1  UNL1        0.2490
     12 O         144.0979  138.5078  160.0388 O.2     1  UNL1       -0.2699
     13 N         143.5840  140.9761  159.4119 N.am    1  UNL1       -0.2761
     14 C         143.1725  142.3606  159.8167 C.3     1  UNL1        0.0937
     15 C         143.0702  143.4445  158.7849 C.3     1  UNL1        0.0216
     16 C         143.3795  143.1440  157.3482 C.3     1  UNL1        0.0035
     17 C         143.7911  141.7595  156.9434 C.3     1  UNL1        0.0216
     18 C         143.8933  140.6756  157.9752 C.3     1  UNL1        0.0937
     19 C         141.7411  139.8175  169.5748 C.ar    1  UNL1        0.0740
     20 C         141.1611  140.4432  170.8085 C.ar    1  UNL1        0.0133
     21 C         140.2359  141.5432  170.3793 C.ar    1  UNL1        0.0368
     22 S         140.2442  141.5973  168.8802 S.2     1  UNL1       -0.0715
     23 C         141.1745  140.5307  168.3831 C.ar    1  UNL1        0.0853
     24 C         143.9580  136.7407  170.7448 C.2     1  UNL1        0.4078
     25 O         144.6675  136.4006  169.4677 O.2     1  UNL1       -0.2260
     26 N         142.9826  137.8797  170.7804 N.am    1  UNL1       -0.2174
     27 C         142.7165  138.6786  169.5390 C.2     1  UNL1        0.2557
     28 O         143.4260  138.3385  168.2619 O.2     1  UNL1       -0.2696
     29 H         142.5169  138.1029  171.6186 H       1  UNL1        0.1612
     30 C         145.3717  134.9770  172.0255 C.3     1  UNL1        0.2574
     31 O         144.2240  135.9419  171.9862 O.3     1  UNL1       -0.4303
@<TRIPOS>BOND
     1    30    31    1
     2    31    24    1
     3    24    25    2
     4    24    26   am
     5    26    27   am
     6    27    28    2
     7    27    19    1
     8    19    20   ar
     9    20    21   ar
    10    21    22   ar
    11    22    23   ar
    12    23     1    1
    13     1     2   am
    14     2     3    2
    15     2     5    1
    16     5     6   ar
    17     6     7   ar
    18     7     8   ar
    19     8    11    1
    20    11    12    2
    21    11    13   am
    22    13    14    1
    23    14    15    1
    24    15    16    1
    25    16    17    1
    26    17    18    1
    27     8     9   ar
    28     9    10   ar
    29    23    19   ar
    30    10     5   ar
    31    18    13    1
    32    26    29    1
    33     1     4    1
