@<TRIPOS>MOLECULE
*****
 33 37 0 0 0
SMALL
GASTEIGER

@<TRIPOS>ATOM
      1 C         140.5401  140.0794  168.9707 C.3     1  UNL1        0.0438
      2 C         139.2743  140.6886  169.4964 C.3     1  UNL1        0.0038
      3 C         139.2369  139.8181  168.2754 C.3     1  UNL1        0.0037
      4 C         142.0234  139.8784  169.0687 C.3     1  UNL1        0.2053
      5 O         142.7239  138.9765  168.0963 O.3     1  UNL1       -0.4754
      6 C         143.9604  140.5431  164.0631 C.ar    1  UNL1        0.0810
      7 C         144.0176  139.0711  164.3456 C.ar    1  UNL1        0.0099
      8 C         143.6054  138.5489  165.6900 C.ar    1  UNL1        0.0372
      9 C         143.1361  139.4987  166.7518 C.ar    1  UNL1        0.1408
     10 C         143.0789  140.9707  166.4693 C.ar    1  UNL1        0.0666
     11 C         143.4911  141.4929  165.1249 C.ar    1  UNL1        0.1475
     12 F         143.4339  142.9650  164.8424 F       1  UNL1       -0.2039
     13 O         145.7201  141.6999  162.5415 O.2     1  UNL1       -0.2701
     14 C         144.3726  141.0654  162.7186 C.2     1  UNL1        0.2480
     15 N         143.4372  140.9530  161.5514 N.am    1  UNL1       -0.3024
     16 H         142.5527  140.5365  161.6677 H       1  UNL1        0.1497
     17 C         143.8494  141.4753  160.2070 C.3     1  UNL1        0.0720
     18 C         144.0888  141.2500  158.7435 C.3     1  UNL1        0.0213
     19 C         144.3238  142.6052  159.3419 C.3     1  UNL1        0.0213
     20 C         138.4631  139.1648  167.1690 C.3     1  UNL1        0.0002
     21 C         139.0862  138.9982  165.8147 C.3     1  UNL1        0.0034
     22 C         139.0580  137.6611  165.1355 C.3     1  UNL1        0.0216
     23 C         139.6811  137.4945  163.7813 C.3     1  UNL1        0.0936
     24 N         140.3324  138.6650  163.1062 N.pl3   1  UNL1       -0.2782
     25 C         140.3606  140.0021  163.7854 C.3     1  UNL1        0.0936
     26 C         139.7375  140.1687  165.1397 C.3     1  UNL1        0.0216
     27 C         140.9555  138.4984  161.7520 C.ar    1  UNL1        0.2202
     28 N         142.2944  137.8355  161.6189 N.ar    1  UNL1       -0.2112
     29 C         142.9175  137.6688  160.2646 C.ar    1  UNL1        0.1147
     30 C         142.2017  138.1651  159.0435 C.ar    1  UNL1        0.0960
     31 CL        142.8248  137.9985  157.6893 Cl      1  UNL1       -0.0790
     32 C         140.8627  138.8280  159.1766 C.ar    1  UNL1        0.1147
     33 N         140.2396  138.9946  160.5309 N.ar    1  UNL1       -0.2112
@<TRIPOS>BOND
     1    13    14    2
     2    14    15   am
     3    15    17    1
     4    17    18    1
     5    18    19    1
     6    14     6    1
     7     6     7   ar
     8     7     8   ar
     9     8     9   ar
    10     9     5    1
    11     5     4    1
    12     4     1    1
    13     1     2    1
    14     2     3    1
    15     3    20    1
    16    20    21    1
    17    21    22    1
    18    22    23    1
    19    23    24    1
    20    24    27    1
    21    27    28   ar
    22    28    29   ar
    23    29    30   ar
    24    30    31    1
    25    30    32   ar
    26    32    33   ar
    27    24    25    1
    28    25    26    1
    29     9    10   ar
    30    10    11   ar
    31    11    12    1
    32    19    17    1
    33    11     6   ar
    34     3     1    1
    35    26    21    1
    36    33    27   ar
    37    15    16    1
@<TRIPOS>MOLECULE
*****
 33 37 0 0 0
SMALL
GASTEIGER

@<TRIPOS>ATOM
      1 C         140.2276  141.0548  167.9895 C.3     1  UNL1        0.0438
      2 C         140.0958  139.9954  169.0432 C.3     1  UNL1        0.0038
      3 C         139.3195  139.8823  167.7647 C.3     1  UNL1        0.0037
      4 C         140.8281  142.3434  167.5109 C.3     1  UNL1        0.2053
      5 O         139.9529  143.3975  166.9003 O.3     1  UNL1       -0.4754
      6 C         140.1288  144.1807  162.4725 C.ar    1  UNL1        0.0810
      7 C         139.0490  144.8088  163.3029 C.ar    1  UNL1        0.0099
      8 C         138.9904  144.5477  164.7788 C.ar    1  UNL1        0.0372
      9 C         140.0116  143.6586  165.4243 C.ar    1  UNL1        0.1408
     10 C         141.0914  143.0306  164.5940 C.ar    1  UNL1        0.0666
     11 C         141.1500  143.2916  163.1180 C.ar    1  UNL1        0.1475
     12 F         142.2299  142.6636  162.2876 F       1  UNL1       -0.2039
     13 O         139.1578  143.8399  160.0869 O.2     1  UNL1       -0.2701
     14 C         140.1875  144.4418  160.9965 C.2     1  UNL1        0.2480
     15 N         141.2759  145.3047  160.4302 N.am    1  UNL1       -0.3024
     16 H         141.9517  145.6998  161.0272 H       1  UNL1        0.1497
     17 C         141.3346  145.5658  158.9542 C.3     1  UNL1        0.0720
     18 C         140.6394  145.8673  157.6597 C.3     1  UNL1        0.0213
     19 C         142.1314  145.7165  157.6923 C.3     1  UNL1        0.0213
     20 C         138.3471  139.1400  166.8968 C.3     1  UNL1        0.0002
     21 C         138.4661  139.2146  165.4034 C.3     1  UNL1        0.0034
     22 C         138.8833  138.0036  164.6228 C.3     1  UNL1        0.0216
     23 C         139.0023  138.0783  163.1294 C.3     1  UNL1        0.0936
     24 N         138.7041  139.3639  162.4166 N.pl3   1  UNL1       -0.2782
     25 C         138.2870  140.5749  163.1972 C.3     1  UNL1        0.0936
     26 C         138.1679  140.5003  164.6906 C.3     1  UNL1        0.0216
     27 C         138.8232  139.4386  160.9232 C.ar    1  UNL1        0.2202
     28 N         139.6636  138.4379  160.1868 N.ar    1  UNL1       -0.2112
     29 C         139.7826  138.5125  158.6934 C.ar    1  UNL1        0.1147
     30 C         139.0612  139.5879  157.9364 C.ar    1  UNL1        0.0960
     31 CL        139.1802  139.6625  156.4430 Cl      1  UNL1       -0.0790
     32 C         138.2208  140.5886  158.6727 C.ar    1  UNL1        0.1147
     33 N         138.1018  140.5139  160.1661 N.ar    1  UNL1       -0.2112
@<TRIPOS>BOND
     1    13    14    2
     2    14    15   am
     3    15    17    1
     4    17    18    1
     5    18    19    1
     6    14     6    1
     7     6     7   ar
     8     7     8   ar
     9     8     9   ar
    10     9     5    1
    11     5     4    1
    12     4     1    1
    13     1     2    1
    14     2     3    1
    15     3    20    1
    16    20    21    1
    17    21    22    1
    18    22    23    1
    19    23    24    1
    20    24    27    1
    21    27    28   ar
    22    28    29   ar
    23    29    30   ar
    24    30    31    1
    25    30    32   ar
    26    32    33   ar
    27    24    25    1
    28    25    26    1
    29     9    10   ar
    30    10    11   ar
    31    11    12    1
    32    19    17    1
    33    11     6   ar
    34     3     1    1
    35    26    21    1
    36    33    27   ar
    37    15    16    1
@<TRIPOS>MOLECULE
*****
 33 37 0 0 0
SMALL
GASTEIGER

@<TRIPOS>ATOM
      1 C         139.8975  140.8236  169.8710 C.3     1  UNL1        0.0438
      2 C         138.4720  140.3905  170.0447 C.3     1  UNL1        0.0038
      3 C         139.1953  140.0939  168.7645 C.3     1  UNL1        0.0037
      4 C         141.1261  141.4950  170.4096 C.3     1  UNL1        0.2053
      5 O         142.4849  141.0387  169.9678 O.3     1  UNL1       -0.4754
      6 C         143.2746  140.2079  165.6162 C.ar    1  UNL1        0.0810
      7 C         143.0331  139.0715  166.5649 C.ar    1  UNL1        0.0099
      8 C         142.7699  139.3484  168.0154 C.ar    1  UNL1        0.0372
      9 C         142.7482  140.7618  168.5172 C.ar    1  UNL1        0.1408
     10 C         142.9897  141.8983  167.5685 C.ar    1  UNL1        0.0666
     11 C         143.2529  141.6213  166.1180 C.ar    1  UNL1        0.1475
     12 F         143.4945  142.7578  165.1692 F       1  UNL1       -0.2039
     13 O         144.3474  140.8972  163.3526 O.2     1  UNL1       -0.2701
     14 C         143.5379  139.9310  164.1656 C.2     1  UNL1        0.2480
     15 N         142.9917  138.6879  163.5282 N.am    1  UNL1       -0.3024
     16 H         142.4604  138.0538  164.0619 H       1  UNL1        0.1497
     17 C         143.2549  138.4110  162.0777 C.3     1  UNL1        0.0720
     18 C         142.9235  137.6717  160.8154 C.3     1  UNL1        0.0213
     19 C         144.0423  138.6707  160.8276 C.3     1  UNL1        0.0213
     20 C         139.2074  139.5014  167.3866 C.3     1  UNL1        0.0002
     21 C         139.5088  140.3682  166.2001 C.3     1  UNL1        0.0034
     22 C         139.6678  141.8495  166.3745 C.3     1  UNL1        0.0216
     23 C         139.9692  142.7163  165.1880 C.3     1  UNL1        0.0936
     24 N         140.1115  142.1018  163.8271 N.pl3   1  UNL1       -0.2782
     25 C         139.9524  140.6205  163.6527 C.3     1  UNL1        0.0936
     26 C         139.6511  139.7537  164.8392 C.3     1  UNL1        0.0216
     27 C         140.4128  142.9686  162.6405 C.ar    1  UNL1        0.2202
     28 N         141.0857  142.3823  161.4350 N.ar    1  UNL1       -0.2112
     29 C         141.3870  143.2491  160.2484 C.ar    1  UNL1        0.1147
     30 C         141.0155  144.7022  160.2675 C.ar    1  UNL1        0.0960
     31 CL        141.3169  145.5691  159.0810 Cl      1  UNL1       -0.0790
     32 C         140.3426  145.2885  161.4731 C.ar    1  UNL1        0.1147
     33 N         140.0413  144.4217  162.6596 N.ar    1  UNL1       -0.2112
@<TRIPOS>BOND
     1    13    14    2
     2    14    15   am
     3    15    17    1
     4    17    18    1
     5    18    19    1
     6    14     6    1
     7     6     7   ar
     8     7     8   ar
     9     8     9   ar
    10     9     5    1
    11     5     4    1
    12     4     1    1
    13     1     2    1
    14     2     3    1
    15     3    20    1
    16    20    21    1
    17    21    22    1
    18    22    23    1
    19    23    24    1
    20    24    27    1
    21    27    28   ar
    22    28    29   ar
    23    29    30   ar
    24    30    31    1
    25    30    32   ar
    26    32    33   ar
    27    24    25    1
    28    25    26    1
    29     9    10   ar
    30    10    11   ar
    31    11    12    1
    32    19    17    1
    33    11     6   ar
    34     3     1    1
    35    26    21    1
    36    33    27   ar
    37    15    16    1
@<TRIPOS>MOLECULE
*****
 33 37 0 0 0
SMALL
GASTEIGER

@<TRIPOS>ATOM
      1 C         139.1644  140.3752  166.3998 C.3     1  UNL1        0.0438
      2 C         138.1868  139.2379  166.3724 C.3     1  UNL1        0.0038
      3 C         138.3913  140.0806  165.1485 C.3     1  UNL1        0.0037
      4 C         140.1751  141.2020  167.1380 C.3     1  UNL1        0.2053
      5 O         140.1721  142.6951  166.9939 O.3     1  UNL1       -0.4754
      6 C         140.1987  144.5604  162.8989 C.ar    1  UNL1        0.0810
      7 C         141.4906  144.1710  163.5540 C.ar    1  UNL1        0.0099
      8 C         141.4817  143.5492  164.9190 C.ar    1  UNL1        0.0372
      9 C         140.1809  143.3169  165.6289 C.ar    1  UNL1        0.1408
     10 C         138.8890  143.7064  164.9737 C.ar    1  UNL1        0.0666
     11 C         138.8979  144.3282  163.6087 C.ar    1  UNL1        0.1475
     12 F         137.6060  144.7177  162.9535 F       1  UNL1       -0.2039
     13 O         139.3917  146.4118  161.2645 O.2     1  UNL1       -0.2701
     14 C         140.2076  145.1823  161.5338 C.2     1  UNL1        0.2480
     15 N         141.0323  144.5745  160.4381 N.am    1  UNL1       -0.3024
     16 H         141.5677  143.7675  160.6149 H       1  UNL1        0.1497
     17 C         141.0411  145.1963  159.0731 C.3     1  UNL1        0.0720
     18 C         141.7942  145.8080  157.9291 C.3     1  UNL1        0.0213
     19 C         140.3034  145.6616  157.8527 C.3     1  UNL1        0.0213
     20 C         138.0631  140.3970  163.7195 C.3     1  UNL1        0.0002
     21 C         139.1665  140.6106  162.7261 C.3     1  UNL1        0.0034
     22 C         140.5935  140.3867  163.1305 C.3     1  UNL1        0.0216
     23 C         141.6969  140.6003  162.1371 C.3     1  UNL1        0.0936
     24 N         141.3733  141.0379  160.7393 N.pl3   1  UNL1       -0.2782
     25 C         139.9463  141.2618  160.3350 C.3     1  UNL1        0.0936
     26 C         138.8429  141.0482  161.3284 C.3     1  UNL1        0.0216
     27 C         142.4767  141.2515  159.7459 C.ar    1  UNL1        0.2202
     28 N         142.7447  140.2209  158.6895 N.ar    1  UNL1       -0.2112
     29 C         143.8481  140.4345  157.6961 C.ar    1  UNL1        0.1147
     30 C         144.6835  141.6787  157.7591 C.ar    1  UNL1        0.0960
     31 CL        145.7869  141.8923  156.7657 Cl      1  UNL1       -0.0790
     32 C         144.4155  142.7093  158.8155 C.ar    1  UNL1        0.1147
     33 N         143.3121  142.4957  159.8089 N.ar    1  UNL1       -0.2112
@<TRIPOS>BOND
     1    13    14    2
     2    14    15   am
     3    15    17    1
     4    17    18    1
     5    18    19    1
     6    14     6    1
     7     6     7   ar
     8     7     8   ar
     9     8     9   ar
    10     9     5    1
    11     5     4    1
    12     4     1    1
    13     1     2    1
    14     2     3    1
    15     3    20    1
    16    20    21    1
    17    21    22    1
    18    22    23    1
    19    23    24    1
    20    24    27    1
    21    27    28   ar
    22    28    29   ar
    23    29    30   ar
    24    30    31    1
    25    30    32   ar
    26    32    33   ar
    27    24    25    1
    28    25    26    1
    29     9    10   ar
    30    10    11   ar
    31    11    12    1
    32    19    17    1
    33    11     6   ar
    34     3     1    1
    35    26    21    1
    36    33    27   ar
    37    15    16    1
@<TRIPOS>MOLECULE
*****
 33 37 0 0 0
SMALL
GASTEIGER

@<TRIPOS>ATOM
      1 C         141.2171  139.8809  168.9729 C.3     1  UNL1        0.0438
      2 C         142.5174  139.7907  169.7151 C.3     1  UNL1        0.0038
      3 C         142.4422  139.3631  168.2793 C.3     1  UNL1        0.0037
      4 C         139.7590  140.2319  168.9448 C.3     1  UNL1        0.2053
      5 O         138.8238  139.4803  168.0445 O.3     1  UNL1       -0.4754
      6 C         139.3148  139.7285  163.5783 C.ar    1  UNL1        0.0810
      7 C         139.4821  140.9582  164.4207 C.ar    1  UNL1        0.0099
      8 C         139.3184  140.8755  165.9094 C.ar    1  UNL1        0.0372
      9 C         138.9875  139.5630  166.5557 C.ar    1  UNL1        0.1408
     10 C         138.8202  138.3332  165.7134 C.ar    1  UNL1        0.0666
     11 C         138.9839  138.4159  164.2247 C.ar    1  UNL1        0.1475
     12 F         138.8166  137.1861  163.3822 F       1  UNL1       -0.2039
     13 O         139.6452  138.5577  161.2826 O.2     1  UNL1       -0.2701
     14 C         139.4785  139.8112  162.0895 C.2     1  UNL1        0.2480
     15 N         139.4754  141.1472  161.4077 N.am    1  UNL1       -0.3024
     16 H         139.3659  141.9699  161.9373 H       1  UNL1        0.1497
     17 C         139.6390  141.2299  159.9189 C.3     1  UNL1        0.0720
     18 C         140.2010  140.6804  158.6413 C.3     1  UNL1        0.0213
     19 C         139.3606  141.9226  158.6179 C.3     1  UNL1        0.0213
     20 C         143.1061  138.8174  167.0500 C.3     1  UNL1        0.0002
     21 C         143.0502  139.5863  165.7633 C.3     1  UNL1        0.0034
     22 C         143.0030  138.8555  164.4543 C.3     1  UNL1        0.0216
     23 C         142.9471  139.6245  163.1676 C.3     1  UNL1        0.0936
     24 N         142.9384  141.1243  163.1899 N.pl3   1  UNL1       -0.2782
     25 C         142.9856  141.8551  164.4990 C.3     1  UNL1        0.0936
     26 C         143.0415  141.0861  165.7857 C.3     1  UNL1        0.0216
     27 C         142.8825  141.8933  161.9033 C.ar    1  UNL1        0.2202
     28 N         142.0740  143.1537  161.8173 N.ar    1  UNL1       -0.2112
     29 C         142.0181  143.9227  160.5307 C.ar    1  UNL1        0.1147
     30 C         142.7707  143.4312  159.3299 C.ar    1  UNL1        0.0960
     31 CL        142.7148  144.2002  158.0432 Cl      1  UNL1       -0.0790
     32 C         143.5793  142.1707  159.4158 C.ar    1  UNL1        0.1147
     33 N         143.6352  141.4018  160.7025 N.ar    1  UNL1       -0.2112
@<TRIPOS>BOND
     1    13    14    2
     2    14    15   am
     3    15    17    1
     4    17    18    1
     5    18    19    1
     6    14     6    1
     7     6     7   ar
     8     7     8   ar
     9     8     9   ar
    10     9     5    1
    11     5     4    1
    12     4     1    1
    13     1     2    1
    14     2     3    1
    15     3    20    1
    16    20    21    1
    17    21    22    1
    18    22    23    1
    19    23    24    1
    20    24    27    1
    21    27    28   ar
    22    28    29   ar
    23    29    30   ar
    24    30    31    1
    25    30    32   ar
    26    32    33   ar
    27    24    25    1
    28    25    26    1
    29     9    10   ar
    30    10    11   ar
    31    11    12    1
    32    19    17    1
    33    11     6   ar
    34     3     1    1
    35    26    21    1
    36    33    27   ar
    37    15    16    1
@<TRIPOS>MOLECULE
*****
 33 37 0 0 0
SMALL
GASTEIGER

@<TRIPOS>ATOM
      1 C         141.3824  139.7145  168.7154 C.3     1  UNL1        0.0438
      2 C         142.6077  139.4432  169.5369 C.3     1  UNL1        0.0038
      3 C         142.6379  139.2309  168.0523 C.3     1  UNL1        0.0037
      4 C         139.9500  140.1504  168.6240 C.3     1  UNL1        0.2053
      5 O         139.0972  139.6890  167.4796 O.3     1  UNL1       -0.4754
      6 C         138.9731  142.0699  163.6631 C.ar    1  UNL1        0.0810
      7 C         138.0428  140.9087  163.8532 C.ar    1  UNL1        0.0099
      8 C         138.0842  140.1151  165.1253 C.ar    1  UNL1        0.0372
      9 C         139.0559  140.4827  166.2074 C.ar    1  UNL1        0.1408
     10 C         139.9861  141.6439  166.0172 C.ar    1  UNL1        0.0666
     11 C         139.9448  142.4375  164.7451 C.ar    1  UNL1        0.1475
     12 F         140.8751  143.5987  164.5549 F       1  UNL1       -0.2039
     13 O         137.8636  143.8965  162.1856 O.2     1  UNL1       -0.2701
     14 C         138.9318  142.8636  162.3908 C.2     1  UNL1        0.2480
     15 N         139.9586  142.6243  161.3239 N.am    1  UNL1       -0.3024
     16 H         140.6597  141.9464  161.4586 H       1  UNL1        0.1497
     17 C         139.9173  143.4180  160.0517 C.3     1  UNL1        0.0720
     18 C         140.1996  144.6862  159.3020 C.3     1  UNL1        0.0213
     19 C         139.5634  143.5245  158.5979 C.3     1  UNL1        0.0213
     20 C         143.3802  138.8291  166.8124 C.3     1  UNL1        0.0002
     21 C         142.7379  138.9945  165.4670 C.3     1  UNL1        0.0034
     22 C         141.6741  138.0357  165.0208 C.3     1  UNL1        0.0216
     23 C         141.0318  138.2011  163.6754 C.3     1  UNL1        0.0936
     24 N         141.4532  139.3252  162.7762 N.pl3   1  UNL1       -0.2782
     25 C         142.5170  140.2840  163.2224 C.3     1  UNL1        0.0936
     26 C         143.1593  140.1186  164.5678 C.3     1  UNL1        0.0216
     27 C         140.8109  139.4906  161.4308 C.ar    1  UNL1        0.2202
     28 N         139.3390  139.2519  161.2680 N.ar    1  UNL1       -0.2112
     29 C         138.6967  139.4173  159.9226 C.ar    1  UNL1        0.1147
     30 C         139.5262  139.8214  158.7400 C.ar    1  UNL1        0.0960
     31 CL        138.8839  139.9868  157.3947 Cl      1  UNL1       -0.0790
     32 C         140.9981  140.0601  158.9029 C.ar    1  UNL1        0.1147
     33 N         141.6404  139.8947  160.2483 N.ar    1  UNL1       -0.2112
@<TRIPOS>BOND
     1    13    14    2
     2    14    15   am
     3    15    17    1
     4    17    18    1
     5    18    19    1
     6    14     6    1
     7     6     7   ar
     8     7     8   ar
     9     8     9   ar
    10     9     5    1
    11     5     4    1
    12     4     1    1
    13     1     2    1
    14     2     3    1
    15     3    20    1
    16    20    21    1
    17    21    22    1
    18    22    23    1
    19    23    24    1
    20    24    27    1
    21    27    28   ar
    22    28    29   ar
    23    29    30   ar
    24    30    31    1
    25    30    32   ar
    26    32    33   ar
    27    24    25    1
    28    25    26    1
    29     9    10   ar
    30    10    11   ar
    31    11    12    1
    32    19    17    1
    33    11     6   ar
    34     3     1    1
    35    26    21    1
    36    33    27   ar
    37    15    16    1
@<TRIPOS>MOLECULE
*****
 33 37 0 0 0
SMALL
GASTEIGER

@<TRIPOS>ATOM
      1 C         140.3575  141.4497  170.1549 C.3     1  UNL1        0.0438
      2 C         141.0115  142.4152  171.0983 C.3     1  UNL1        0.0038
      3 C         141.7485  141.9399  169.8814 C.3     1  UNL1        0.0037
      4 C         139.1767  140.6092  169.7682 C.3     1  UNL1        0.2053
      5 O         139.3291  139.5316  168.7359 O.3     1  UNL1       -0.4754
      6 C         138.5595  140.4465  164.3976 C.ar    1  UNL1        0.0810
      7 C         138.0964  139.1456  164.9834 C.ar    1  UNL1        0.0099
      8 C         138.3530  138.8407  166.4294 C.ar    1  UNL1        0.0372
      9 C         139.0726  139.8366  167.2898 C.ar    1  UNL1        0.1408
     10 C         139.5357  141.1376  166.7041 C.ar    1  UNL1        0.0666
     11 C         139.2791  141.4425  165.2580 C.ar    1  UNL1        0.1475
     12 F         139.7422  142.7435  164.6722 F       1  UNL1       -0.2039
     13 O         137.2902  141.7910  162.5725 O.2     1  UNL1       -0.2701
     14 C         138.3030  140.7516  162.9515 C.2     1  UNL1        0.2480
     15 N         139.0593  140.0171  161.8845 N.am    1  UNL1       -0.3024
     16 H         139.7240  139.3348  162.1333 H       1  UNL1        0.1497
     17 C         138.8028  140.3221  160.4384 C.3     1  UNL1        0.0720
     18 C         138.2674  141.2397  159.3794 C.3     1  UNL1        0.0213
     19 C         138.8939  139.9328  158.9926 C.3     1  UNL1        0.0213
     20 C         142.9770  141.9486  169.0209 C.3     1  UNL1        0.0002
     21 C         142.9622  141.2654  167.6856 C.3     1  UNL1        0.0034
     22 C         142.7946  139.7769  167.6065 C.3     1  UNL1        0.0216
     23 C         142.7798  139.0937  166.2712 C.3     1  UNL1        0.0936
     24 N         142.9327  139.8989  165.0150 N.pl3   1  UNL1       -0.2782
     25 C         143.1003  141.3874  165.0941 C.3     1  UNL1        0.0936
     26 C         143.1151  142.0706  166.4294 C.3     1  UNL1        0.0216
     27 C         142.9179  139.2157  163.6797 C.ar    1  UNL1        0.2202
     28 N         141.6489  138.6045  163.1640 N.ar    1  UNL1       -0.2112
     29 C         141.6342  137.9213  161.8287 C.ar    1  UNL1        0.1147
     30 C         142.8884  137.8493  161.0091 C.ar    1  UNL1        0.0960
     31 CL        142.8736  137.1661  159.6738 Cl      1  UNL1       -0.0790
     32 C         144.1574  138.4606  161.5249 C.ar    1  UNL1        0.1147
     33 N         144.1721  139.1438  162.8602 N.ar    1  UNL1       -0.2112
@<TRIPOS>BOND
     1    13    14    2
     2    14    15   am
     3    15    17    1
     4    17    18    1
     5    18    19    1
     6    14     6    1
     7     6     7   ar
     8     7     8   ar
     9     8     9   ar
    10     9     5    1
    11     5     4    1
    12     4     1    1
    13     1     2    1
    14     2     3    1
    15     3    20    1
    16    20    21    1
    17    21    22    1
    18    22    23    1
    19    23    24    1
    20    24    27    1
    21    27    28   ar
    22    28    29   ar
    23    29    30   ar
    24    30    31    1
    25    30    32   ar
    26    32    33   ar
    27    24    25    1
    28    25    26    1
    29     9    10   ar
    30    10    11   ar
    31    11    12    1
    32    19    17    1
    33    11     6   ar
    34     3     1    1
    35    26    21    1
    36    33    27   ar
    37    15    16    1
@<TRIPOS>MOLECULE
*****
 33 37 0 0 0
SMALL
GASTEIGER

@<TRIPOS>ATOM
      1 C         140.5259  140.0262  168.8155 C.3     1  UNL1        0.0438
      2 C         139.1473  140.2353  169.3685 C.3     1  UNL1        0.0038
      3 C         139.3317  139.9156  167.9146 C.3     1  UNL1        0.0037
      4 C         142.0113  139.9693  169.0164 C.3     1  UNL1        0.2053
      5 O         142.9259  140.6620  168.0502 O.3     1  UNL1       -0.4754
      6 C         142.9899  139.4179  163.7260 C.ar    1  UNL1        0.0810
      7 C         142.6464  138.4173  164.7893 C.ar    1  UNL1        0.0099
      8 C         142.6251  138.8320  166.2307 C.ar    1  UNL1        0.0372
      9 C         142.9472  140.2473  166.6087 C.ar    1  UNL1        0.1408
     10 C         143.2907  141.2480  165.5454 C.ar    1  UNL1        0.0666
     11 C         143.3121  140.8333  164.1041 C.ar    1  UNL1        0.1475
     12 F         143.6556  141.8340  163.0407 F       1  UNL1       -0.2039
     13 O         143.9866  137.9637  161.8176 O.2     1  UNL1       -0.2701
     14 C         143.0112  139.0032  162.2846 C.2     1  UNL1        0.2480
     15 N         142.0573  139.6281  161.3102 N.am    1  UNL1       -0.3024
     16 H         141.4171  140.3103  161.6167 H       1  UNL1        0.1497
     17 C         142.0786  139.2134  159.8688 C.3     1  UNL1        0.0720
     18 C         141.9785  139.5655  158.4142 C.3     1  UNL1        0.0213
     19 C         142.2156  138.1430  158.8269 C.3     1  UNL1        0.0213
     20 C         138.7486  139.6672  166.5551 C.3     1  UNL1        0.0002
     21 C         139.1525  140.5303  165.3967 C.3     1  UNL1        0.0034
     22 C         139.0309  140.0098  163.9952 C.3     1  UNL1        0.0216
     23 C         139.4347  140.8729  162.8368 C.3     1  UNL1        0.0936
     24 N         139.9601  142.2567  163.0799 N.pl3   1  UNL1       -0.2782
     25 C         140.0817  142.7773  164.4814 C.3     1  UNL1        0.0936
     26 C         139.6779  141.9141  165.6398 C.3     1  UNL1        0.0216
     27 C         140.3639  143.1198  161.9215 C.ar    1  UNL1        0.2202
     28 N         141.2275  142.5569  160.8319 N.ar    1  UNL1       -0.2112
     29 C         141.6313  143.4200  159.6735 C.ar    1  UNL1        0.1147
     30 C         141.1716  144.8462  159.6047 C.ar    1  UNL1        0.0960
     31 CL        141.5754  145.7093  158.4463 Cl      1  UNL1       -0.0790
     32 C         140.3081  145.4091  160.6943 C.ar    1  UNL1        0.1147
     33 N         139.9042  144.5460  161.8527 N.ar    1  UNL1       -0.2112
@<TRIPOS>BOND
     1    13    14    2
     2    14    15   am
     3    15    17    1
     4    17    18    1
     5    18    19    1
     6    14     6    1
     7     6     7   ar
     8     7     8   ar
     9     8     9   ar
    10     9     5    1
    11     5     4    1
    12     4     1    1
    13     1     2    1
    14     2     3    1
    15     3    20    1
    16    20    21    1
    17    21    22    1
    18    22    23    1
    19    23    24    1
    20    24    27    1
    21    27    28   ar
    22    28    29   ar
    23    29    30   ar
    24    30    31    1
    25    30    32   ar
    26    32    33   ar
    27    24    25    1
    28    25    26    1
    29     9    10   ar
    30    10    11   ar
    31    11    12    1
    32    19    17    1
    33    11     6   ar
    34     3     1    1
    35    26    21    1
    36    33    27   ar
    37    15    16    1
@<TRIPOS>MOLECULE
*****
 33 37 0 0 0
SMALL
GASTEIGER

@<TRIPOS>ATOM
      1 C         140.3016  140.9988  169.1646 C.3     1  UNL1        0.0438
      2 C         139.2232  140.3297  169.9641 C.3     1  UNL1        0.0038
      3 C         139.3028  140.1117  168.4822 C.3     1  UNL1        0.0037
      4 C         141.5009  141.8972  169.0970 C.3     1  UNL1        0.2053
      5 O         142.5509  141.6690  168.0504 O.3     1  UNL1       -0.4754
      6 C         142.0128  143.3626  163.9162 C.ar    1  UNL1        0.0810
      7 C         143.3106  142.7148  164.2982 C.ar    1  UNL1        0.0099
      8 C         143.4900  142.1503  165.6762 C.ar    1  UNL1        0.0372
      9 C         142.3715  142.2336  166.6723 C.ar    1  UNL1        0.1408
     10 C         141.0737  142.8814  166.2903 C.ar    1  UNL1        0.0666
     11 C         140.8943  143.4459  164.9122 C.ar    1  UNL1        0.1475
     12 F         139.5964  144.0937  164.5301 F       1  UNL1       -0.2039
     13 O         142.9194  144.7572  161.9204 O.2     1  UNL1       -0.2701
     14 C         141.8333  143.9272  162.5380 C.2     1  UNL1        0.2480
     15 N         140.5680  143.6616  161.7777 N.am    1  UNL1       -0.3024
     16 H         139.8552  143.1168  162.1831 H       1  UNL1        0.1497
     17 C         140.3885  144.2262  160.3995 C.3     1  UNL1        0.0720
     18 C         139.9751  144.0523  158.9682 C.3     1  UNL1        0.0213
     19 C         140.4913  145.3778  159.4440 C.3     1  UNL1        0.0213
     20 C         138.7722  139.4737  167.2327 C.3     1  UNL1        0.0002
     21 C         139.5324  139.5989  165.9456 C.3     1  UNL1        0.0034
     22 C         138.8962  140.2622  164.7603 C.3     1  UNL1        0.0216
     23 C         139.6564  140.3874  163.4732 C.3     1  UNL1        0.0936
     24 N         141.0528  139.8493  163.3716 N.pl3   1  UNL1       -0.2782
     25 C         141.6890  139.1860  164.5570 C.3     1  UNL1        0.0936
     26 C         140.9288  139.0608  165.8440 C.3     1  UNL1        0.0216
     27 C         141.8130  139.9745  162.0845 C.ar    1  UNL1        0.2202
     28 N         141.2089  140.7098  160.9252 N.ar    1  UNL1       -0.2112
     29 C         141.9690  140.8350  159.6381 C.ar    1  UNL1        0.1147
     30 C         143.3333  140.2248  159.5105 C.ar    1  UNL1        0.0960
     31 CL        144.0935  140.3500  158.2234 Cl      1  UNL1       -0.0790
     32 C         143.9374  139.4894  160.6699 C.ar    1  UNL1        0.1147
     33 N         143.1772  139.3642  161.9569 N.ar    1  UNL1       -0.2112
@<TRIPOS>BOND
     1    13    14    2
     2    14    15   am
     3    15    17    1
     4    17    18    1
     5    18    19    1
     6    14     6    1
     7     6     7   ar
     8     7     8   ar
     9     8     9   ar
    10     9     5    1
    11     5     4    1
    12     4     1    1
    13     1     2    1
    14     2     3    1
    15     3    20    1
    16    20    21    1
    17    21    22    1
    18    22    23    1
    19    23    24    1
    20    24    27    1
    21    27    28   ar
    22    28    29   ar
    23    29    30   ar
    24    30    31    1
    25    30    32   ar
    26    32    33   ar
    27    24    25    1
    28    25    26    1
    29     9    10   ar
    30    10    11   ar
    31    11    12    1
    32    19    17    1
    33    11     6   ar
    34     3     1    1
    35    26    21    1
    36    33    27   ar
    37    15    16    1
