@<TRIPOS>MOLECULE
*****
 30 32 0 0 0
SMALL
GASTEIGER

@<TRIPOS>ATOM
      1 N         137.6475  143.3636  161.9166 N.3     1  UNL1       -0.2972
      2 H         136.7007  143.5177  161.5698 H       1  UNL1        0.1233
      3 C         137.9757  141.4195  161.1338 C.3     1  UNL1        0.0161
      4 C         137.6774  141.9791  162.4931 C.3     1  UNL1        0.0461
      5 C         137.3790  142.5387  163.8524 C.3     1  UNL1        0.0161
      6 C         137.7073  140.5947  163.0696 C.3     1  UNL1        0.0408
      7 C         138.8862  140.1455  163.8811 C.ar    1  UNL1       -0.0209
      8 C         138.7067  139.7760  165.3237 C.ar    1  UNL1       -0.0042
      9 C         139.8856  139.3268  166.1352 C.ar    1  UNL1       -0.0003
     10 C         141.2440  139.2471  165.5040 C.ar    1  UNL1       -0.0000
     11 C         142.4229  138.7980  166.3155 C.ar    1  UNL1       -0.0000
     12 C         143.7812  138.7183  165.6843 C.ar    1  UNL1       -0.0000
     13 C         143.9608  139.0878  164.2417 C.ar    1  UNL1       -0.0000
     14 C         142.7819  139.5370  163.4302 C.ar    1  UNL1       -0.0000
     15 C         141.4236  139.6166  164.0614 C.ar    1  UNL1       -0.0003
     16 C         140.2446  140.0658  163.2499 C.ar    1  UNL1       -0.0042
     17 C         137.9903  144.5425  162.7784 C.3     1  UNL1        0.1020
     18 C         139.2043  145.3683  162.4712 C.3     1  UNL1        0.1697
     19 O         139.0992  146.5379  161.5379 O.3     1  UNL1       -0.3793
     20 H         138.1849  146.6203  161.2244 H       1  UNL1        0.2106
     21 C         140.5233  145.0245  163.0973 C.3     1  UNL1        0.2358
     22 O         140.8816  143.5904  163.3519 O.3     1  UNL1       -0.4721
     23 C         141.3613  143.1666  164.7086 C.ar    1  UNL1        0.1482
     24 C         140.3869  143.0354  165.8414 C.ar    1  UNL1        0.0376
     25 C         140.8666  142.6117  167.1979 C.ar    1  UNL1        0.0032
     26 C         142.3207  142.3192  167.4217 C.ar    1  UNL1        0.0009
     27 C         143.2951  142.4504  166.2889 C.ar    1  UNL1        0.0133
     28 C         142.8154  142.8741  164.9323 C.ar    1  UNL1        0.1023
     29 C         143.7898  143.0054  163.7994 C.1     1  UNL1        0.1035
     30 N         144.7641  143.1365  162.6665 N.1     1  UNL1       -0.1907
@<TRIPOS>BOND
     1     3     4    1
     2     4     5    1
     3     4     6    1
     4     6     7    1
     5     7     8   ar
     6     8     9   ar
     7     9    10   ar
     8    10    11   ar
     9    11    12   ar
    10    12    13   ar
    11    13    14   ar
    12    14    15   ar
    13    15    16   ar
    14     4     1    1
    15     1    17    1
    16    17    18    1
    17    18    19    1
    18    18    21    1
    19    21    22    1
    20    22    23    1
    21    23    24   ar
    22    24    25   ar
    23    25    26   ar
    24    26    27   ar
    25    27    28   ar
    26    28    29    1
    27    29    30    3
    28    16     7   ar
    29    28    23   ar
    30    15    10   ar
    31     1     2    1
    32    19    20    1
@<TRIPOS>MOLECULE
*****
 30 32 0 0 0
SMALL
GASTEIGER

@<TRIPOS>ATOM
      1 N         145.0205  142.2699  162.0140 N.3     1  UNL1       -0.2972
      2 H         144.4748  142.1117  161.1669 H       1  UNL1        0.1233
      3 C         143.7421  140.5784  161.9478 C.3     1  UNL1        0.0161
      4 C         144.7265  141.1257  162.9384 C.3     1  UNL1        0.0461
      5 C         145.7110  141.6731  163.9290 C.3     1  UNL1        0.0161
      6 C         144.4325  139.9816  163.8628 C.3     1  UNL1        0.0408
      7 C         143.1287  139.9312  164.6028 C.ar    1  UNL1       -0.0209
      8 C         142.8020  140.9847  165.6193 C.ar    1  UNL1       -0.0042
      9 C         141.4982  140.9344  166.3592 C.ar    1  UNL1       -0.0003
     10 C         140.5210  139.8304  166.0826 C.ar    1  UNL1       -0.0000
     11 C         139.2172  139.7801  166.8226 C.ar    1  UNL1       -0.0000
     12 C         138.2401  138.6762  166.5460 C.ar    1  UNL1       -0.0000
     13 C         138.5667  137.6227  165.5294 C.ar    1  UNL1       -0.0000
     14 C         139.8705  137.6730  164.7895 C.ar    1  UNL1       -0.0000
     15 C         140.8476  138.7769  165.0661 C.ar    1  UNL1       -0.0003
     16 C         142.1515  138.8273  164.3261 C.ar    1  UNL1       -0.0042
     17 C         144.7432  143.6777  162.4513 C.3     1  UNL1        0.1020
     18 C         143.3298  144.1739  162.5300 C.3     1  UNL1        0.1697
     19 O         142.6986  144.8321  161.3390 O.3     1  UNL1       -0.3793
     20 H         143.3353  144.8563  160.6076 H       1  UNL1        0.2106
     21 C         142.5477  144.0120  163.7996 C.3     1  UNL1        0.2358
     22 O         141.0746  144.2944  163.8142 O.3     1  UNL1       -0.4721
     23 C         140.0935  143.1675  163.6799 C.ar    1  UNL1        0.1482
     24 C         140.3997  142.0104  162.7760 C.ar    1  UNL1        0.0376
     25 C         139.4187  140.8836  162.6417 C.ar    1  UNL1        0.0032
     26 C         138.1315  140.9141  163.4113 C.ar    1  UNL1        0.0009
     27 C         137.8254  142.0713  164.3152 C.ar    1  UNL1        0.0133
     28 C         138.8064  143.1980  164.4495 C.ar    1  UNL1        0.1023
     29 C         138.5003  144.3553  165.3535 C.1     1  UNL1        0.1035
     30 N         138.1942  145.5125  166.2574 N.1     1  UNL1       -0.1907
@<TRIPOS>BOND
     1     3     4    1
     2     4     5    1
     3     4     6    1
     4     6     7    1
     5     7     8   ar
     6     8     9   ar
     7     9    10   ar
     8    10    11   ar
     9    11    12   ar
    10    12    13   ar
    11    13    14   ar
    12    14    15   ar
    13    15    16   ar
    14     4     1    1
    15     1    17    1
    16    17    18    1
    17    18    19    1
    18    18    21    1
    19    21    22    1
    20    22    23    1
    21    23    24   ar
    22    24    25   ar
    23    25    26   ar
    24    26    27   ar
    25    27    28   ar
    26    28    29    1
    27    29    30    3
    28    16     7   ar
    29    28    23   ar
    30    15    10   ar
    31     1     2    1
    32    19    20    1
@<TRIPOS>MOLECULE
*****
 30 32 0 0 0
SMALL
GASTEIGER

@<TRIPOS>ATOM
      1 N         145.5016  142.0416  162.1258 N.3     1  UNL1       -0.2972
      2 H         146.0049  141.6016  161.3554 H       1  UNL1        0.1233
      3 C         144.3877  140.2427  161.9729 C.3     1  UNL1        0.0161
      4 C         145.1212  140.9455  163.0766 C.3     1  UNL1        0.0461
      5 C         145.8547  141.6483  164.1802 C.3     1  UNL1        0.0161
      6 C         144.7409  139.8494  164.0273 C.3     1  UNL1        0.0408
      7 C         143.3816  139.8450  164.6617 C.ar    1  UNL1       -0.0209
      8 C         142.9900  140.9448  165.6036 C.ar    1  UNL1       -0.0042
      9 C         141.6308  140.9404  166.2380 C.ar    1  UNL1       -0.0003
     10 C         140.6631  139.8362  165.9305 C.ar    1  UNL1       -0.0000
     11 C         139.3039  139.8319  166.5649 C.ar    1  UNL1       -0.0000
     12 C         138.3363  138.7277  166.2574 C.ar    1  UNL1       -0.0000
     13 C         138.7279  137.6280  165.3155 C.ar    1  UNL1       -0.0000
     14 C         140.0871  137.6323  164.6811 C.ar    1  UNL1       -0.0000
     15 C         141.0547  138.7365  164.9886 C.ar    1  UNL1       -0.0003
     16 C         142.4140  138.7409  164.3542 C.ar    1  UNL1       -0.0042
     17 C         144.4390  142.9044  161.5122 C.3     1  UNL1        0.1020
     18 C         143.6010  143.7945  162.3815 C.3     1  UNL1        0.1697
     19 O         144.0142  145.2171  162.6174 O.3     1  UNL1       -0.3793
     20 H         144.8387  145.3978  162.1393 H       1  UNL1        0.2106
     21 C         142.3499  143.2621  163.0149 C.3     1  UNL1        0.2358
     22 O         141.6249  142.1079  162.3886 O.3     1  UNL1       -0.4721
     23 C         140.2186  141.7913  162.8038 C.ar    1  UNL1        0.1482
     24 C         139.4804  142.7202  163.7215 C.ar    1  UNL1        0.0376
     25 C         138.0743  142.4036  164.1367 C.ar    1  UNL1        0.0032
     26 C         137.4063  141.1581  163.6342 C.ar    1  UNL1        0.0009
     27 C         138.1445  140.2292  162.7165 C.ar    1  UNL1        0.0133
     28 C         139.5507  140.5458  162.3013 C.ar    1  UNL1        0.1023
     29 C         140.2889  139.6169  161.3836 C.1     1  UNL1        0.1035
     30 N         141.0271  138.6880  160.4659 N.1     1  UNL1       -0.1907
@<TRIPOS>BOND
     1     3     4    1
     2     4     5    1
     3     4     6    1
     4     6     7    1
     5     7     8   ar
     6     8     9   ar
     7     9    10   ar
     8    10    11   ar
     9    11    12   ar
    10    12    13   ar
    11    13    14   ar
    12    14    15   ar
    13    15    16   ar
    14     4     1    1
    15     1    17    1
    16    17    18    1
    17    18    19    1
    18    18    21    1
    19    21    22    1
    20    22    23    1
    21    23    24   ar
    22    24    25   ar
    23    25    26   ar
    24    26    27   ar
    25    27    28   ar
    26    28    29    1
    27    29    30    3
    28    16     7   ar
    29    28    23   ar
    30    15    10   ar
    31     1     2    1
    32    19    20    1
@<TRIPOS>MOLECULE
*****
 30 32 0 0 0
SMALL
GASTEIGER

@<TRIPOS>ATOM
      1 N         141.4966  137.1564  162.4849 N.3     1  UNL1       -0.2972
      2 H         141.3010  136.4143  161.8130 H       1  UNL1        0.1233
      3 C         140.5420  137.1690  164.3792 C.3     1  UNL1        0.0161
      4 C         140.1716  137.6330  163.0017 C.3     1  UNL1        0.0461
      5 C         139.8013  138.0970  161.6242 C.3     1  UNL1        0.0161
      6 C         138.8466  138.1096  163.5185 C.3     1  UNL1        0.0408
      7 C         138.5972  139.5774  163.7025 C.ar    1  UNL1       -0.0209
      8 C         137.5676  140.2741  162.8632 C.ar    1  UNL1       -0.0042
      9 C         137.3182  141.7417  163.0472 C.ar    1  UNL1       -0.0003
     10 C         138.0986  142.5127  164.0703 C.ar    1  UNL1       -0.0000
     11 C         137.8492  143.9803  164.2542 C.ar    1  UNL1       -0.0000
     12 C         138.6296  144.7511  165.2774 C.ar    1  UNL1       -0.0000
     13 C         139.6592  144.0544  166.1166 C.ar    1  UNL1       -0.0000
     14 C         139.9086  142.5867  165.9327 C.ar    1  UNL1       -0.0000
     15 C         139.1282  141.8159  164.9096 C.ar    1  UNL1       -0.0003
     16 C         139.3776  140.3482  164.7256 C.ar    1  UNL1       -0.0042
     17 C         142.4280  138.1184  161.8087 C.3     1  UNL1        0.1020
     18 C         143.3197  139.0018  162.6299 C.3     1  UNL1        0.1697
     19 O         144.8092  138.8410  162.5555 O.3     1  UNL1       -0.3793
     20 H         145.0268  138.1278  161.9351 H       1  UNL1        0.2106
     21 C         142.7218  140.0460  163.5256 C.3     1  UNL1        0.2358
     22 O         143.3793  141.3879  163.6560 O.3     1  UNL1       -0.4721
     23 C         142.6188  142.6329  163.3069 C.ar    1  UNL1        0.1482
     24 C         141.5110  142.5767  162.2972 C.ar    1  UNL1        0.0376
     25 C         140.7505  143.8215  161.9482 C.ar    1  UNL1        0.0032
     26 C         141.0979  145.1227  162.6088 C.ar    1  UNL1        0.0009
     27 C         142.2057  145.1789  163.6185 C.ar    1  UNL1        0.0133
     28 C         142.9662  143.9340  163.9675 C.ar    1  UNL1        0.1023
     29 C         144.0741  143.9902  164.9772 C.1     1  UNL1        0.1035
     30 N         145.1820  144.0463  165.9868 N.1     1  UNL1       -0.1907
@<TRIPOS>BOND
     1     3     4    1
     2     4     5    1
     3     4     6    1
     4     6     7    1
     5     7     8   ar
     6     8     9   ar
     7     9    10   ar
     8    10    11   ar
     9    11    12   ar
    10    12    13   ar
    11    13    14   ar
    12    14    15   ar
    13    15    16   ar
    14     4     1    1
    15     1    17    1
    16    17    18    1
    17    18    19    1
    18    18    21    1
    19    21    22    1
    20    22    23    1
    21    23    24   ar
    22    24    25   ar
    23    25    26   ar
    24    26    27   ar
    25    27    28   ar
    26    28    29    1
    27    29    30    3
    28    16     7   ar
    29    28    23   ar
    30    15    10   ar
    31     1     2    1
    32    19    20    1
@<TRIPOS>MOLECULE
*****
 30 32 0 0 0
SMALL
GASTEIGER

@<TRIPOS>ATOM
      1 N         138.7715  144.7676  162.5949 N.3     1  UNL1       -0.2972
      2 H         139.1091  144.6761  161.6368 H       1  UNL1        0.1233
      3 C         139.0924  144.8439  164.6904 C.3     1  UNL1        0.0161
      4 C         139.9691  144.6448  163.4897 C.3     1  UNL1        0.0461
      5 C         140.8458  144.4458  162.2889 C.3     1  UNL1        0.0161
      6 C         141.1667  144.5221  164.3845 C.3     1  UNL1        0.0408
      7 C         141.5038  143.2008  165.0094 C.ar    1  UNL1       -0.0209
      8 C         140.7283  142.7133  166.1972 C.ar    1  UNL1       -0.0042
      9 C         141.0653  141.3920  166.8222 C.ar    1  UNL1       -0.0003
     10 C         142.1778  140.5581  166.2592 C.ar    1  UNL1       -0.0000
     11 C         142.5148  139.2368  166.8842 C.ar    1  UNL1       -0.0000
     12 C         143.6273  138.4029  166.3212 C.ar    1  UNL1       -0.0000
     13 C         144.4028  138.8903  165.1334 C.ar    1  UNL1       -0.0000
     14 C         144.0658  140.2116  164.5084 C.ar    1  UNL1       -0.0000
     15 C         142.9533  141.0455  165.0714 C.ar    1  UNL1       -0.0003
     16 C         142.6163  142.3669  164.4464 C.ar    1  UNL1       -0.0042
     17 C         137.6239  143.8129  162.7426 C.3     1  UNL1        0.1020
     18 C         137.7663  142.3922  162.2829 C.3     1  UNL1        0.1697
     19 O         138.2675  142.0981  160.8999 O.3     1  UNL1       -0.3793
     20 H         138.4516  142.9313  160.4388 H       1  UNL1        0.2106
     21 C         137.4076  141.2656  163.2060 C.3     1  UNL1        0.2358
     22 O         138.3592  140.8514  164.2889 O.3     1  UNL1       -0.4721
     23 C         139.3215  139.7254  164.0515 C.ar    1  UNL1        0.1482
     24 C         140.3005  139.8020  162.9176 C.ar    1  UNL1        0.0376
     25 C         141.2627  138.6761  162.6802 C.ar    1  UNL1        0.0032
     26 C         141.2459  137.4736  163.5767 C.ar    1  UNL1        0.0009
     27 C         140.2670  137.3970  164.7106 C.ar    1  UNL1        0.0133
     28 C         139.3047  138.5229  164.9480 C.ar    1  UNL1        0.1023
     29 C         138.3257  138.4464  166.0819 C.1     1  UNL1        0.1035
     30 N         137.3467  138.3698  167.2158 N.1     1  UNL1       -0.1907
@<TRIPOS>BOND
     1     3     4    1
     2     4     5    1
     3     4     6    1
     4     6     7    1
     5     7     8   ar
     6     8     9   ar
     7     9    10   ar
     8    10    11   ar
     9    11    12   ar
    10    12    13   ar
    11    13    14   ar
    12    14    15   ar
    13    15    16   ar
    14     4     1    1
    15     1    17    1
    16    17    18    1
    17    18    19    1
    18    18    21    1
    19    21    22    1
    20    22    23    1
    21    23    24   ar
    22    24    25   ar
    23    25    26   ar
    24    26    27   ar
    25    27    28   ar
    26    28    29    1
    27    29    30    3
    28    16     7   ar
    29    28    23   ar
    30    15    10   ar
    31     1     2    1
    32    19    20    1
@<TRIPOS>MOLECULE
*****
 30 32 0 0 0
SMALL
GASTEIGER

@<TRIPOS>ATOM
      1 N         140.6689  145.8452  163.3353 N.3     1  UNL1       -0.2972
      2 H         140.4397  146.5786  164.0062 H       1  UNL1        0.1233
      3 C         139.2906  145.1654  161.8730 C.3     1  UNL1        0.0161
      4 C         139.5147  144.8872  163.3299 C.3     1  UNL1        0.0461
      5 C         139.7388  144.6089  164.7867 C.3     1  UNL1        0.0161
      6 C         138.3605  143.9291  163.3244 C.3     1  UNL1        0.0408
      7 C         138.6095  142.4543  163.4386 C.ar    1  UNL1       -0.0209
      8 C         139.2740  141.7166  162.3142 C.ar    1  UNL1       -0.0042
      9 C         139.5229  140.2419  162.4283 C.ar    1  UNL1       -0.0003
     10 C         139.1074  139.5047  163.6668 C.ar    1  UNL1       -0.0000
     11 C         139.3563  138.0300  163.7809 C.ar    1  UNL1       -0.0000
     12 C         138.9408  137.2929  165.0195 C.ar    1  UNL1       -0.0000
     13 C         138.2763  138.0305  166.1439 C.ar    1  UNL1       -0.0000
     14 C         138.0274  139.5053  166.0298 C.ar    1  UNL1       -0.0000
     15 C         138.4429  140.2424  164.7913 C.ar    1  UNL1       -0.0003
     16 C         138.1940  141.7172  164.6771 C.ar    1  UNL1       -0.0042
     17 C         142.0457  145.3589  163.6789 C.3     1  UNL1        0.1020
     18 C         142.7767  144.4492  162.7365 C.3     1  UNL1        0.1697
     19 O         142.7980  144.7516  161.2674 O.3     1  UNL1       -0.3793
     20 H         142.2956  145.5637  161.0972 H       1  UNL1        0.2106
     21 C         143.4863  143.2371  163.2631 C.3     1  UNL1        0.2358
     22 O         142.8597  141.8814  163.1234 O.3     1  UNL1       -0.4721
     23 C         142.4831  141.0996  164.3469 C.ar    1  UNL1        0.1482
     24 C         141.8858  141.8008  165.5307 C.ar    1  UNL1        0.0376
     25 C         141.5093  141.0190  166.7542 C.ar    1  UNL1        0.0032
     26 C         141.7299  139.5358  166.7938 C.ar    1  UNL1        0.0009
     27 C         142.3272  138.8345  165.6100 C.ar    1  UNL1        0.0133
     28 C         142.7038  139.6164  164.3866 C.ar    1  UNL1        0.1023
     29 C         143.3010  138.9151  163.2026 C.1     1  UNL1        0.1035
     30 N         143.8982  138.2139  162.0188 N.1     1  UNL1       -0.1907
@<TRIPOS>BOND
     1     3     4    1
     2     4     5    1
     3     4     6    1
     4     6     7    1
     5     7     8   ar
     6     8     9   ar
     7     9    10   ar
     8    10    11   ar
     9    11    12   ar
    10    12    13   ar
    11    13    14   ar
    12    14    15   ar
    13    15    16   ar
    14     4     1    1
    15     1    17    1
    16    17    18    1
    17    18    19    1
    18    18    21    1
    19    21    22    1
    20    22    23    1
    21    23    24   ar
    22    24    25   ar
    23    25    26   ar
    24    26    27   ar
    25    27    28   ar
    26    28    29    1
    27    29    30    3
    28    16     7   ar
    29    28    23   ar
    30    15    10   ar
    31     1     2    1
    32    19    20    1
@<TRIPOS>MOLECULE
*****
 30 32 0 0 0
SMALL
GASTEIGER

@<TRIPOS>ATOM
      1 N         142.7554  144.8163  162.0022 N.3     1  UNL1       -0.2972
      2 H         142.8661  145.8099  161.8001 H       1  UNL1        0.1233
      3 C         141.2629  143.6020  161.1089 C.3     1  UNL1        0.0161
      4 C         141.2932  144.5837  162.2426 C.3     1  UNL1        0.0461
      5 C         141.3234  145.5654  163.3764 C.3     1  UNL1        0.0161
      6 C         139.8309  144.3511  162.4831 C.3     1  UNL1        0.0408
      7 C         139.3812  143.1571  163.2719 C.ar    1  UNL1       -0.0209
      8 C         138.2023  142.3533  162.8092 C.ar    1  UNL1       -0.0042
      9 C         137.7526  141.1593  163.5979 C.ar    1  UNL1       -0.0003
     10 C         138.4817  140.7690  164.8494 C.ar    1  UNL1       -0.0000
     11 C         138.0320  139.5751  165.6381 C.ar    1  UNL1       -0.0000
     12 C         138.7611  139.1849  166.8895 C.ar    1  UNL1       -0.0000
     13 C         139.9400  139.9887  167.3521 C.ar    1  UNL1       -0.0000
     14 C         140.3898  141.1827  166.5634 C.ar    1  UNL1       -0.0000
     15 C         139.6606  141.5728  165.3120 C.ar    1  UNL1       -0.0003
     16 C         140.1104  142.7669  164.5233 C.ar    1  UNL1       -0.0042
     17 C         143.7541  144.4774  163.0689 C.3     1  UNL1        0.1020
     18 C         144.2592  143.0715  163.2040 C.3     1  UNL1        0.1697
     19 O         145.3907  142.5950  162.3421 O.3     1  UNL1       -0.3793
     20 H         145.6772  143.3143  161.7579 H       1  UNL1        0.2106
     21 C         143.6329  142.1421  164.2009 C.3     1  UNL1        0.2358
     22 O         143.8040  140.6591  164.0543 O.3     1  UNL1       -0.4721
     23 C         142.6200  139.7955  163.7342 C.ar    1  UNL1        0.1482
     24 C         141.7688  140.1032  162.5381 C.ar    1  UNL1        0.0376
     25 C         140.5849  139.2396  162.2180 C.ar    1  UNL1        0.0032
     26 C         140.2522  138.0683  163.0940 C.ar    1  UNL1        0.0009
     27 C         141.1034  137.7606  164.2901 C.ar    1  UNL1        0.0133
     28 C         142.2873  138.6242  164.6102 C.ar    1  UNL1        0.1023
     29 C         143.1386  138.3165  165.8063 C.1     1  UNL1        0.1035
     30 N         143.9899  138.0089  167.0024 N.1     1  UNL1       -0.1907
@<TRIPOS>BOND
     1     3     4    1
     2     4     5    1
     3     4     6    1
     4     6     7    1
     5     7     8   ar
     6     8     9   ar
     7     9    10   ar
     8    10    11   ar
     9    11    12   ar
    10    12    13   ar
    11    13    14   ar
    12    14    15   ar
    13    15    16   ar
    14     4     1    1
    15     1    17    1
    16    17    18    1
    17    18    19    1
    18    18    21    1
    19    21    22    1
    20    22    23    1
    21    23    24   ar
    22    24    25   ar
    23    25    26   ar
    24    26    27   ar
    25    27    28   ar
    26    28    29    1
    27    29    30    3
    28    16     7   ar
    29    28    23   ar
    30    15    10   ar
    31     1     2    1
    32    19    20    1
@<TRIPOS>MOLECULE
*****
 30 32 0 0 0
SMALL
GASTEIGER

@<TRIPOS>ATOM
      1 N         137.6987  144.1974  162.5677 N.3     1  UNL1       -0.2972
      2 H         137.4207  144.9720  161.9651 H       1  UNL1        0.1233
      3 C         139.5470  145.1448  162.1365 C.3     1  UNL1        0.0161
      4 C         138.8593  144.6804  163.3861 C.3     1  UNL1        0.0461
      5 C         138.1716  144.2159  164.6356 C.3     1  UNL1        0.0161
      6 C         140.0199  145.1633  164.2044 C.3     1  UNL1        0.0408
      7 C         141.3311  144.4369  164.1482 C.ar    1  UNL1       -0.0209
      8 C         142.6017  145.1994  163.9153 C.ar    1  UNL1       -0.0042
      9 C         143.9128  144.4731  163.8591 C.ar    1  UNL1       -0.0003
     10 C         143.9535  142.9840  164.0358 C.ar    1  UNL1       -0.0000
     11 C         145.2646  142.2576  163.9796 C.ar    1  UNL1       -0.0000
     12 C         145.3053  140.7686  164.1564 C.ar    1  UNL1       -0.0000
     13 C         144.0347  140.0061  164.3893 C.ar    1  UNL1       -0.0000
     14 C         142.7236  140.7325  164.4455 C.ar    1  UNL1       -0.0000
     15 C         142.6830  142.2214  164.2687 C.ar    1  UNL1       -0.0003
     16 C         141.3718  142.9479  164.3249 C.ar    1  UNL1       -0.0042
     17 C         137.8527  142.9951  161.6841 C.3     1  UNL1        0.1020
     18 C         137.8712  141.6206  162.2845 C.3     1  UNL1        0.1697
     19 O         136.6980  141.1352  163.0833 O.3     1  UNL1       -0.3793
     20 H         136.0191  141.8274  163.1140 H       1  UNL1        0.2106
     21 C         139.0629  140.7315  162.0861 C.3     1  UNL1        0.2358
     22 O         139.7970  140.7420  160.7781 O.3     1  UNL1       -0.4721
     23 C         141.1838  141.3086  160.7009 C.ar    1  UNL1        0.1482
     24 C         141.3822  142.7767  160.4658 C.ar    1  UNL1        0.0376
     25 C         142.7689  143.3432  160.3887 C.ar    1  UNL1        0.0032
     26 C         143.9573  142.4417  160.5467 C.ar    1  UNL1        0.0009
     27 C         143.7589  140.9736  160.7818 C.ar    1  UNL1        0.0133
     28 C         142.3722  140.4071  160.8589 C.ar    1  UNL1        0.1023
     29 C         142.1738  138.9389  161.0940 C.1     1  UNL1        0.1035
     30 N         141.9753  137.4708  161.3291 N.1     1  UNL1       -0.1907
@<TRIPOS>BOND
     1     3     4    1
     2     4     5    1
     3     4     6    1
     4     6     7    1
     5     7     8   ar
     6     8     9   ar
     7     9    10   ar
     8    10    11   ar
     9    11    12   ar
    10    12    13   ar
    11    13    14   ar
    12    14    15   ar
    13    15    16   ar
    14     4     1    1
    15     1    17    1
    16    17    18    1
    17    18    19    1
    18    18    21    1
    19    21    22    1
    20    22    23    1
    21    23    24   ar
    22    24    25   ar
    23    25    26   ar
    24    26    27   ar
    25    27    28   ar
    26    28    29    1
    27    29    30    3
    28    16     7   ar
    29    28    23   ar
    30    15    10   ar
    31     1     2    1
    32    19    20    1
@<TRIPOS>MOLECULE
*****
 30 32 0 0 0
SMALL
GASTEIGER

@<TRIPOS>ATOM
      1 N         141.5077  145.7453  162.9816 N.3     1  UNL1       -0.2972
      2 H         141.9525  146.5555  162.5503 H       1  UNL1        0.1233
      3 C         141.8341  144.2261  161.5374 C.3     1  UNL1        0.0161
      4 C         142.4672  144.6005  162.8447 C.3     1  UNL1        0.0461
      5 C         143.1004  144.9748  164.1520 C.3     1  UNL1        0.0161
      6 C         143.4268  143.4557  162.7078 C.3     1  UNL1        0.0408
      7 C         143.1031  142.1278  163.3259 C.ar    1  UNL1       -0.0209
      8 C         143.7370  141.7314  164.6263 C.ar    1  UNL1       -0.0042
      9 C         143.4134  140.4036  165.2444 C.ar    1  UNL1       -0.0003
     10 C         142.4559  139.4720  164.5621 C.ar    1  UNL1       -0.0000
     11 C         142.1323  138.1442  165.1802 C.ar    1  UNL1       -0.0000
     12 C         141.1748  137.2127  164.4979 C.ar    1  UNL1       -0.0000
     13 C         140.5410  137.6091  163.1975 C.ar    1  UNL1       -0.0000
     14 C         140.8646  138.9369  162.5794 C.ar    1  UNL1       -0.0000
     15 C         141.8220  139.8684  163.2617 C.ar    1  UNL1       -0.0003
     16 C         142.1457  141.1963  162.6436 C.ar    1  UNL1       -0.0042
     17 C         140.1307  145.6440  162.3953 C.3     1  UNL1        0.1020
     18 C         139.0208  145.0227  163.1904 C.3     1  UNL1        0.1697
     19 O         137.7072  144.7178  162.5335 O.3     1  UNL1       -0.3793
     20 H         137.7431  144.9821  161.6008 H       1  UNL1        0.2106
     21 C         139.2245  144.7064  164.6424 C.3     1  UNL1        0.2358
     22 O         140.1270  143.5778  165.0448 O.3     1  UNL1       -0.4721
     23 C         139.5618  142.2047  165.2573 C.ar    1  UNL1        0.1482
     24 C         138.6065  141.6238  164.2573 C.ar    1  UNL1        0.0376
     25 C         138.0413  140.2508  164.4698 C.ar    1  UNL1        0.0032
     26 C         138.4313  139.4586  165.6824 C.ar    1  UNL1        0.0009
     27 C         139.3865  140.0395  166.6824 C.ar    1  UNL1        0.0133
     28 C         139.9517  141.4126  166.4699 C.ar    1  UNL1        0.1023
     29 C         140.9070  141.9935  167.4700 C.1     1  UNL1        0.1035
     30 N         141.8623  142.5744  168.4699 N.1     1  UNL1       -0.1907
@<TRIPOS>BOND
     1     3     4    1
     2     4     5    1
     3     4     6    1
     4     6     7    1
     5     7     8   ar
     6     8     9   ar
     7     9    10   ar
     8    10    11   ar
     9    11    12   ar
    10    12    13   ar
    11    13    14   ar
    12    14    15   ar
    13    15    16   ar
    14     4     1    1
    15     1    17    1
    16    17    18    1
    17    18    19    1
    18    18    21    1
    19    21    22    1
    20    22    23    1
    21    23    24   ar
    22    24    25   ar
    23    25    26   ar
    24    26    27   ar
    25    27    28   ar
    26    28    29    1
    27    29    30    3
    28    16     7   ar
    29    28    23   ar
    30    15    10   ar
    31     1     2    1
    32    19    20    1
