@<TRIPOS>MOLECULE
*****
 36 40 0 0 0
SMALL
GASTEIGER

@<TRIPOS>ATOM
      1 N         140.5594  141.5110  161.5498 N.am    1  UNL1       -0.2794
      2 C         140.1355  140.0959  161.2895 C.2     1  UNL1        0.2495
      3 O         139.2456  139.3875  162.2674 O.2     1  UNL1       -0.2698
      4 H         141.1434  141.9759  160.9080 H       1  UNL1        0.1552
      5 N         138.1313  143.2701  161.4493 N.pl3   1  UNL1       -0.3560
      6 C         138.8794  143.0972  162.7379 C.ar    1  UNL1        0.0552
      7 C         138.4134  143.8040  163.9762 C.ar    1  UNL1        0.0154
      8 C         139.1616  143.6311  165.2648 C.ar    1  UNL1        0.0018
      9 C         140.3756  142.7515  165.3151 C.ar    1  UNL1        0.0073
     10 C         140.8415  142.0448  164.0768 C.ar    1  UNL1        0.0164
     11 C         140.0934  142.2177  162.7882 C.ar    1  UNL1        0.0636
     12 H         137.3345  143.8474  161.4163 H       1  UNL1        0.1424
     13 H         138.4371  142.8063  160.6365 H       1  UNL1        0.1424
     14 C         141.1237  142.5786  166.6037 C.ar    1  UNL1        0.0295
     15 C         140.5758  142.8153  167.9799 C.ar    1  UNL1        0.0070
     16 C         141.6645  142.5217  168.9690 C.ar    1  UNL1        0.0075
     17 C         142.8852  142.1036  168.2043 C.ar    1  UNL1        0.0354
     18 S         142.5510  142.1388  166.7423 S.2     1  UNL1       -0.0864
     19 C         140.6014  139.3891  160.0511 C.ar    1  UNL1        0.0537
     20 C         139.6021  138.7644  159.1231 C.ar    1  UNL1        0.0042
     21 C         140.0681  138.0576  157.8849 C.ar    1  UNL1       -0.0028
     22 C         141.5334  137.9755  157.5746 C.ar    1  UNL1       -0.0061
     23 C         142.5327  138.6002  158.5026 C.ar    1  UNL1       -0.0028
     24 C         142.0667  139.3070  159.7409 C.ar    1  UNL1        0.0042
     25 C         141.9993  137.2687  156.3364 C.3     1  UNL1        0.0991
     26 N         142.1729  135.7788  156.3436 N.3     1  UNL1       -0.2689
     27 C         143.0964  135.1360  157.3355 C.3     1  UNL1        0.0737
     28 C         143.2699  133.6461  157.3426 C.3     1  UNL1        0.0318
     29 C         142.5199  132.7989  156.3579 C.3     1  UNL1        0.0446
     30 C         141.8401  131.8277  155.4388 C.3     1  UNL1        0.0160
     31 C         142.3038  130.4472  155.7983 C.3     1  UNL1        0.0184
     32 C         143.2700  130.5652  156.9395 C.3     1  UNL1        0.0685
     33 N         143.4036  132.0187  157.2854 N.3     1  UNL1       -0.2995
     34 C         141.5963  133.4417  155.3660 C.3     1  UNL1        0.0318
     35 C         141.4228  134.9316  155.3588 C.3     1  UNL1        0.0737
     36 H         144.3730  132.3142  157.1702 H       1  UNL1        0.1232
@<TRIPOS>BOND
     1     5     6    1
     2     6     7   ar
     3     7     8   ar
     4     8     9   ar
     5     9    14    1
     6    14    15   ar
     7    15    16   ar
     8    16    17   ar
     9    17    18   ar
    10     9    10   ar
    11    10    11   ar
    12    11     1    1
    13     1     2   am
    14     2     3    2
    15     2    19    1
    16    19    20   ar
    17    20    21   ar
    18    21    22   ar
    19    22    25    1
    20    25    26    1
    21    26    27    1
    22    27    28    1
    23    28    29    1
    24    29    30    1
    25    30    31    1
    26    31    32    1
    27    32    33    1
    28    29    34    1
    29    34    35    1
    30    22    23   ar
    31    23    24   ar
    32    11     6   ar
    33    24    19   ar
    34    18    14   ar
    35    35    26    1
    36    33    29    1
    37     5    12    1
    38     5    13    1
    39     1     4    1
    40    33    36    1
@<TRIPOS>MOLECULE
*****
 36 40 0 0 0
SMALL
GASTEIGER

@<TRIPOS>ATOM
      1 N         141.9487  138.0577  158.8882 N.am    1  UNL1       -0.2794
      2 C         140.4673  138.2924  158.8737 C.2     1  UNL1        0.2495
      3 O         139.6586  137.9071  157.6705 O.2     1  UNL1       -0.2698
      4 H         142.4794  138.3106  159.6779 H       1  UNL1        0.1552
      5 N         142.7639  139.7699  156.5636 N.pl3   1  UNL1       -0.3560
      6 C         143.0292  138.2938  156.5373 C.ar    1  UNL1        0.0552
      7 C         143.7020  137.6738  155.3487 C.ar    1  UNL1        0.0154
      8 C         143.9672  136.1976  155.3224 C.ar    1  UNL1        0.0018
      9 C         143.5596  135.3416  156.4846 C.ar    1  UNL1        0.0073
     10 C         142.8868  135.9616  157.6733 C.ar    1  UNL1        0.0164
     11 C         142.6215  137.4377  157.6996 C.ar    1  UNL1        0.0636
     12 H         143.0315  140.3318  155.8008 H       1  UNL1        0.1424
     13 H         142.3223  140.1769  157.3438 H       1  UNL1        0.1424
     14 C         143.8248  133.8654  156.4584 C.ar    1  UNL1        0.0295
     15 C         143.5832  132.9468  155.2974 C.ar    1  UNL1        0.0070
     16 C         143.9872  131.5623  155.7099 C.ar    1  UNL1        0.0075
     17 C         144.4784  131.6253  157.1258 C.ar    1  UNL1        0.0354
     18 S         144.3780  133.0487  157.5884 S.2     1  UNL1       -0.0864
     19 C         139.7943  138.9124  160.0623 C.ar    1  UNL1        0.0537
     20 C         138.9182  138.0775  160.9485 C.ar    1  UNL1        0.0042
     21 C         138.2453  138.6976  162.1370 C.ar    1  UNL1       -0.0028
     22 C         138.4485  140.1527  162.4394 C.ar    1  UNL1       -0.0061
     23 C         139.3246  140.9876  161.5532 C.ar    1  UNL1       -0.0028
     24 C         139.9975  140.3675  160.3647 C.ar    1  UNL1        0.0042
     25 C         137.7756  140.7727  163.6280 C.3     1  UNL1        0.0991
     26 N         138.4582  140.7675  164.9637 N.3     1  UNL1       -0.2689
     27 C         138.2291  139.6338  165.9187 C.3     1  UNL1        0.0737
     28 C         138.9117  139.6287  167.2544 C.3     1  UNL1        0.0318
     29 C         139.8235  140.7573  167.6350 C.3     1  UNL1        0.0446
     30 C         140.7577  141.8110  168.1517 C.3     1  UNL1        0.0160
     31 C         141.2033  141.4025  169.5245 C.3     1  UNL1        0.0184
     32 C         140.5446  140.0963  169.8562 C.3     1  UNL1        0.0685
     33 N         139.6918  139.6976  168.6884 N.3     1  UNL1       -0.2995
     34 C         140.0527  141.8910  166.6799 C.3     1  UNL1        0.0318
     35 C         139.3700  141.8961  165.3442 C.3     1  UNL1        0.0737
     36 H         138.7179  139.6200  168.9814 H       1  UNL1        0.1232
@<TRIPOS>BOND
     1     5     6    1
     2     6     7   ar
     3     7     8   ar
     4     8     9   ar
     5     9    14    1
     6    14    15   ar
     7    15    16   ar
     8    16    17   ar
     9    17    18   ar
    10     9    10   ar
    11    10    11   ar
    12    11     1    1
    13     1     2   am
    14     2     3    2
    15     2    19    1
    16    19    20   ar
    17    20    21   ar
    18    21    22   ar
    19    22    25    1
    20    25    26    1
    21    26    27    1
    22    27    28    1
    23    28    29    1
    24    29    30    1
    25    30    31    1
    26    31    32    1
    27    32    33    1
    28    29    34    1
    29    34    35    1
    30    22    23   ar
    31    23    24   ar
    32    11     6   ar
    33    24    19   ar
    34    18    14   ar
    35    35    26    1
    36    33    29    1
    37     5    12    1
    38     5    13    1
    39     1     4    1
    40    33    36    1
@<TRIPOS>MOLECULE
*****
 36 40 0 0 0
SMALL
GASTEIGER

@<TRIPOS>ATOM
      1 N         140.5261  141.5221  161.5582 N.am    1  UNL1       -0.2794
      2 C         140.2252  140.0671  161.3523 C.2     1  UNL1        0.2495
      3 O         139.5013  139.2933  162.4140 O.2     1  UNL1       -0.2698
      4 H         141.0012  142.0299  160.8613 H       1  UNL1        0.1552
      5 N         138.0856  143.2668  161.5811 N.pl3   1  UNL1       -0.3560
      6 C         138.8828  143.0757  162.8373 C.ar    1  UNL1        0.0552
      7 C         138.4598  143.7569  164.1049 C.ar    1  UNL1        0.0154
      8 C         139.2571  143.5658  165.3611 C.ar    1  UNL1        0.0018
      9 C         140.4772  142.6935  165.3496 C.ar    1  UNL1        0.0073
     10 C         140.9002  142.0123  164.0820 C.ar    1  UNL1        0.0164
     11 C         140.1030  142.2033  162.8258 C.ar    1  UNL1        0.0636
     12 H         137.2848  143.8393  161.5887 H       1  UNL1        0.1424
     13 H         138.3633  142.8196  160.7491 H       1  UNL1        0.1424
     14 C         141.2745  142.5024  166.6058 C.ar    1  UNL1        0.0295
     15 C         142.7520  142.2554  166.6833 C.ar    1  UNL1        0.0070
     16 C         143.1249  142.1250  168.1303 C.ar    1  UNL1        0.0075
     17 C         141.8779  142.2915  168.9471 C.ar    1  UNL1        0.0354
     18 S         140.7343  142.5247  168.0049 S.2     1  UNL1       -0.0864
     19 C         140.6482  139.3857  160.0846 C.ar    1  UNL1        0.0537
     20 C         142.1051  139.2617  159.7498 C.ar    1  UNL1        0.0042
     21 C         142.5279  138.5803  158.4822 C.ar    1  UNL1       -0.0028
     22 C         141.4939  138.0230  157.5493 C.ar    1  UNL1       -0.0061
     23 C         140.0370  138.1470  157.8841 C.ar    1  UNL1       -0.0028
     24 C         139.6142  138.8283  159.1518 C.ar    1  UNL1        0.0042
     25 C         141.9168  137.3416  156.2818 C.3     1  UNL1        0.0991
     26 N         142.0777  135.8506  156.2494 N.3     1  UNL1       -0.2689
     27 C         141.2514  135.0273  155.3062 C.3     1  UNL1        0.0737
     28 C         141.4123  133.5363  155.2739 C.3     1  UNL1        0.0318
     29 C         142.3995  132.8686  156.1847 C.3     1  UNL1        0.0446
     30 C         143.3411  132.0648  157.0316 C.3     1  UNL1        0.0160
     31 C         143.1705  130.6191  156.6701 C.3     1  UNL1        0.0184
     32 C         142.1235  130.5293  155.5997 C.3     1  UNL1        0.0685
     33 N         141.6469  131.9196  155.2997 N.3     1  UNL1       -0.2995
     34 C         143.2257  133.6918  157.1278 C.3     1  UNL1        0.0318
     35 C         143.0648  135.1828  157.1602 C.3     1  UNL1        0.0737
     36 H         140.6468  131.9907  155.4871 H       1  UNL1        0.1232
@<TRIPOS>BOND
     1     5     6    1
     2     6     7   ar
     3     7     8   ar
     4     8     9   ar
     5     9    14    1
     6    14    15   ar
     7    15    16   ar
     8    16    17   ar
     9    17    18   ar
    10     9    10   ar
    11    10    11   ar
    12    11     1    1
    13     1     2   am
    14     2     3    2
    15     2    19    1
    16    19    20   ar
    17    20    21   ar
    18    21    22   ar
    19    22    25    1
    20    25    26    1
    21    26    27    1
    22    27    28    1
    23    28    29    1
    24    29    30    1
    25    30    31    1
    26    31    32    1
    27    32    33    1
    28    29    34    1
    29    34    35    1
    30    22    23   ar
    31    23    24   ar
    32    11     6   ar
    33    24    19   ar
    34    18    14   ar
    35    35    26    1
    36    33    29    1
    37     5    12    1
    38     5    13    1
    39     1     4    1
    40    33    36    1
@<TRIPOS>MOLECULE
*****
 36 40 0 0 0
SMALL
GASTEIGER

@<TRIPOS>ATOM
      1 N         143.5831  140.6921  162.0562 N.am    1  UNL1       -0.2794
      2 C         142.3291  140.7556  161.2356 C.2     1  UNL1        0.2495
      3 O         141.1878  141.6236  161.6759 O.2     1  UNL1       -0.2698
      4 H         144.3322  140.1224  161.7672 H       1  UNL1        0.1552
      5 N         144.7912  143.4371  161.9814 N.pl3   1  UNL1       -0.3560
      6 C         144.2998  142.8691  163.2798 C.ar    1  UNL1        0.0552
      7 C         144.4124  143.6737  164.5407 C.ar    1  UNL1        0.0154
      8 C         143.9209  143.1056  165.8392 C.ar    1  UNL1        0.0018
      9 C         143.3169  141.7332  165.8766 C.ar    1  UNL1        0.0073
     10 C         143.2043  140.9287  164.6156 C.ar    1  UNL1        0.0164
     11 C         143.6957  141.4966  163.3172 C.ar    1  UNL1        0.0636
     12 H         145.1877  144.3379  161.9568 H       1  UNL1        0.1424
     13 H         144.7173  142.9091  161.1537 H       1  UNL1        0.1424
     14 C         142.8254  141.1651  167.1750 C.ar    1  UNL1        0.0295
     15 C         142.6659  139.7085  167.4959 C.ar    1  UNL1        0.0070
     16 C         142.1491  139.5971  168.8997 C.ar    1  UNL1        0.0075
     17 C         141.9892  140.9847  169.4463 C.ar    1  UNL1        0.0354
     18 S         142.4072  141.9539  168.3804 S.2     1  UNL1       -0.0864
     19 C         142.2164  139.9511  159.9745 C.ar    1  UNL1        0.0537
     20 C         140.9792  139.1466  159.7061 C.ar    1  UNL1        0.0042
     21 C         140.8666  138.3422  158.4451 C.ar    1  UNL1       -0.0028
     22 C         141.9912  138.3422  157.4525 C.ar    1  UNL1       -0.0061
     23 C         143.2285  139.1467  157.7209 C.ar    1  UNL1       -0.0028
     24 C         143.3411  139.9511  158.9820 C.ar    1  UNL1        0.0042
     25 C         141.8785  137.5377  156.1915 C.3     1  UNL1        0.0991
     26 N         142.0730  136.0509  156.2306 N.3     1  UNL1       -0.2689
     27 C         143.0126  135.4433  157.2295 C.3     1  UNL1        0.0737
     28 C         143.2070  133.9564  157.2685 C.3     1  UNL1        0.0318
     29 C         142.4619  133.0772  156.3084 C.3     1  UNL1        0.0446
     30 C         141.7892  132.0764  155.4163 C.3     1  UNL1        0.0160
     31 C         142.2747  130.7108  155.8029 C.3     1  UNL1        0.0184
     32 C         143.2474  130.8676  156.9339 C.3     1  UNL1        0.0685
     33 N         143.3631  132.3302  157.2464 N.3     1  UNL1       -0.2995
     34 C         141.5223  133.6848  155.3095 C.3     1  UNL1        0.0318
     35 C         141.3278  135.1717  155.2705 C.3     1  UNL1        0.0737
     36 H         144.3274  132.6365  157.1173 H       1  UNL1        0.1232
@<TRIPOS>BOND
     1     5     6    1
     2     6     7   ar
     3     7     8   ar
     4     8     9   ar
     5     9    14    1
     6    14    15   ar
     7    15    16   ar
     8    16    17   ar
     9    17    18   ar
    10     9    10   ar
    11    10    11   ar
    12    11     1    1
    13     1     2   am
    14     2     3    2
    15     2    19    1
    16    19    20   ar
    17    20    21   ar
    18    21    22   ar
    19    22    25    1
    20    25    26    1
    21    26    27    1
    22    27    28    1
    23    28    29    1
    24    29    30    1
    25    30    31    1
    26    31    32    1
    27    32    33    1
    28    29    34    1
    29    34    35    1
    30    22    23   ar
    31    23    24   ar
    32    11     6   ar
    33    24    19   ar
    34    18    14   ar
    35    35    26    1
    36    33    29    1
    37     5    12    1
    38     5    13    1
    39     1     4    1
    40    33    36    1
@<TRIPOS>MOLECULE
*****
 36 40 0 0 0
SMALL
GASTEIGER

@<TRIPOS>ATOM
      1 N         141.8370  138.4076  158.6708 N.am    1  UNL1       -0.2794
      2 C         142.5586  138.9483  159.8694 C.2     1  UNL1        0.2495
      3 O         144.0299  138.7052  160.0320 O.2     1  UNL1       -0.2698
      4 H         140.8714  138.5672  158.5641 H       1  UNL1        0.1552
      5 N         143.1443  139.8251  156.3725 N.pl3   1  UNL1       -0.3560
      6 C         143.2402  138.3325  156.4855 C.ar    1  UNL1        0.0552
      7 C         143.9898  137.5486  155.4494 C.ar    1  UNL1        0.0154
      8 C         144.0858  136.0559  155.5624 C.ar    1  UNL1        0.0018
      9 C         143.4322  135.3472  156.7114 C.ar    1  UNL1        0.0073
     10 C         142.6826  136.1311  157.7476 C.ar    1  UNL1        0.0164
     11 C         142.5866  137.6237  157.6346 C.ar    1  UNL1        0.0636
     12 H         143.5733  140.2903  155.6183 H       1  UNL1        0.1424
     13 H         142.6523  140.3396  157.0526 H       1  UNL1        0.1424
     14 C         143.5281  133.8545  156.8245 C.ar    1  UNL1        0.0295
     15 C         144.5648  133.0936  157.5968 C.ar    1  UNL1        0.0070
     16 C         144.2816  131.6295  157.4347 C.ar    1  UNL1        0.0075
     17 C         143.0700  131.4855  156.5622 C.ar    1  UNL1        0.0354
     18 S         142.6043  132.8607  156.1851 S.2     1  UNL1       -0.0864
     19 C         141.8091  139.7323  160.9057 C.ar    1  UNL1        0.0537
     20 C         142.4364  140.9442  161.5284 C.ar    1  UNL1        0.0042
     21 C         141.6868  141.7280  162.5646 C.ar    1  UNL1       -0.0028
     22 C         140.3099  141.2999  162.9781 C.ar    1  UNL1       -0.0061
     23 C         139.6826  140.0881  162.3553 C.ar    1  UNL1       -0.0028
     24 C         140.4322  139.3042  161.3191 C.ar    1  UNL1        0.0042
     25 C         139.5604  142.0838  164.0143 C.3     1  UNL1        0.0991
     26 N         139.7626  141.7870  165.4707 N.3     1  UNL1       -0.2689
     27 C         139.3786  140.4465  166.0234 C.3     1  UNL1        0.0737
     28 C         139.5807  140.1498  167.4798 C.3     1  UNL1        0.0318
     29 C         140.1669  141.1937  168.3835 C.3     1  UNL1        0.0446
     30 C         140.7388  142.1330  169.4035 C.3     1  UNL1        0.0160
     31 C         140.7580  141.4254  170.7260 C.3     1  UNL1        0.0184
     32 C         140.1979  140.0487  170.5233 C.3     1  UNL1        0.0685
     33 N         139.8325  139.9055  169.0755 N.3     1  UNL1       -0.2995
     34 C         140.5508  142.5342  167.8309 C.3     1  UNL1        0.0318
     35 C         140.3487  142.8309  166.3744 C.3     1  UNL1        0.0737
     36 H         138.8345  139.7143  168.9877 H       1  UNL1        0.1232
@<TRIPOS>BOND
     1     5     6    1
     2     6     7   ar
     3     7     8   ar
     4     8     9   ar
     5     9    14    1
     6    14    15   ar
     7    15    16   ar
     8    16    17   ar
     9    17    18   ar
    10     9    10   ar
    11    10    11   ar
    12    11     1    1
    13     1     2   am
    14     2     3    2
    15     2    19    1
    16    19    20   ar
    17    20    21   ar
    18    21    22   ar
    19    22    25    1
    20    25    26    1
    21    26    27    1
    22    27    28    1
    23    28    29    1
    24    29    30    1
    25    30    31    1
    26    31    32    1
    27    32    33    1
    28    29    34    1
    29    34    35    1
    30    22    23   ar
    31    23    24   ar
    32    11     6   ar
    33    24    19   ar
    34    18    14   ar
    35    35    26    1
    36    33    29    1
    37     5    12    1
    38     5    13    1
    39     1     4    1
    40    33    36    1
@<TRIPOS>MOLECULE
*****
 36 40 0 0 0
SMALL
GASTEIGER

@<TRIPOS>ATOM
      1 N         139.7587  138.6343  161.6604 N.am    1  UNL1       -0.2794
      2 C         140.5482  139.3242  160.5877 C.2     1  UNL1        0.2495
      3 O         140.9821  140.7479  160.7740 O.2     1  UNL1       -0.2698
      4 H         139.4739  137.6998  161.5382 H       1  UNL1        0.1552
      5 N         137.2994  140.3498  161.7530 N.pl3   1  UNL1       -0.3560
      6 C         138.1735  140.2259  162.9657 C.ar    1  UNL1        0.0552
      7 C         137.8179  140.9597  164.2247 C.ar    1  UNL1        0.0154
      8 C         138.6920  140.8357  165.4374 C.ar    1  UNL1        0.0018
      9 C         139.9216  139.9779  165.3911 C.ar    1  UNL1        0.0073
     10 C         140.2772  139.2441  164.1321 C.ar    1  UNL1        0.0164
     11 C         139.4031  139.3681  162.9194 C.ar    1  UNL1        0.0636
     12 H         136.4923  140.9128  161.7834 H       1  UNL1        0.1424
     13 H         137.5328  139.8682  160.9267 H       1  UNL1        0.1424
     14 C         140.7958  139.8539  166.6038 C.ar    1  UNL1        0.0295
     15 C         142.2217  139.3884  166.6189 C.ar    1  UNL1        0.0070
     16 C         142.7047  139.4204  168.0386 C.ar    1  UNL1        0.0075
     17 C         141.5774  139.9057  168.9009 C.ar    1  UNL1        0.0354
     18 S         140.3975  140.1736  168.0141 S.2     1  UNL1       -0.0864
     19 C         140.9038  138.5904  159.3286 C.ar    1  UNL1        0.0537
     20 C         142.3143  138.1343  159.0992 C.ar    1  UNL1        0.0042
     21 C         142.6698  137.4006  157.8402 C.ar    1  UNL1       -0.0028
     22 C         141.6149  137.1230  156.8105 C.ar    1  UNL1       -0.0061
     23 C         140.2045  137.5792  157.0399 C.ar    1  UNL1       -0.0028
     24 C         139.8489  138.3129  158.2990 C.ar    1  UNL1        0.0042
     25 C         141.9705  136.3893  155.5515 C.3     1  UNL1        0.0991
     26 N         142.3897  134.9504  155.6149 N.3     1  UNL1       -0.2689
     27 C         141.3862  133.8649  155.3602 C.3     1  UNL1        0.0737
     28 C         141.8055  132.4261  155.4236 C.3     1  UNL1        0.0318
     29 C         143.2281  132.0727  155.7417 C.3     1  UNL1        0.0446
     30 C         144.6077  131.5690  156.0464 C.3     1  UNL1        0.0160
     31 C         144.5735  130.0700  156.0045 C.3     1  UNL1        0.0184
     32 C         143.1728  129.6473  155.6738 C.3     1  UNL1        0.0685
     33 N         142.3413  130.8851  155.5114 N.3     1  UNL1       -0.2995
     34 C         144.2315  133.1582  155.9963 C.3     1  UNL1        0.0318
     35 C         143.8123  134.5970  155.9330 C.3     1  UNL1        0.0737
     36 H         141.5814  130.8834  156.1918 H       1  UNL1        0.1232
@<TRIPOS>BOND
     1     5     6    1
     2     6     7   ar
     3     7     8   ar
     4     8     9   ar
     5     9    14    1
     6    14    15   ar
     7    15    16   ar
     8    16    17   ar
     9    17    18   ar
    10     9    10   ar
    11    10    11   ar
    12    11     1    1
    13     1     2   am
    14     2     3    2
    15     2    19    1
    16    19    20   ar
    17    20    21   ar
    18    21    22   ar
    19    22    25    1
    20    25    26    1
    21    26    27    1
    22    27    28    1
    23    28    29    1
    24    29    30    1
    25    30    31    1
    26    31    32    1
    27    32    33    1
    28    29    34    1
    29    34    35    1
    30    22    23   ar
    31    23    24   ar
    32    11     6   ar
    33    24    19   ar
    34    18    14   ar
    35    35    26    1
    36    33    29    1
    37     5    12    1
    38     5    13    1
    39     1     4    1
    40    33    36    1
@<TRIPOS>MOLECULE
*****
 36 40 0 0 0
SMALL
GASTEIGER

@<TRIPOS>ATOM
      1 N         141.3720  144.3232  161.3982 N.am    1  UNL1       -0.2794
      2 C         141.7401  143.6391  160.1151 C.2     1  UNL1        0.2495
      3 O         142.5462  142.3744  160.1439 O.2     1  UNL1       -0.2698
      4 H         140.8429  145.1533  161.3793 H       1  UNL1        0.1552
      5 N         143.9760  145.1743  162.6208 N.pl3   1  UNL1       -0.3560
      6 C         143.1118  144.1682  163.3214 C.ar    1  UNL1        0.0552
      7 C         143.5497  143.5876  164.6333 C.ar    1  UNL1        0.0154
      8 C         142.6855  142.5814  165.3340 C.ar    1  UNL1        0.0018
      9 C         141.3835  142.1559  164.7227 C.ar    1  UNL1        0.0073
     10 C         140.9457  142.7365  163.4107 C.ar    1  UNL1        0.0164
     11 C         141.8098  143.7426  162.7101 C.ar    1  UNL1        0.0636
     12 H         144.8305  145.4536  163.0220 H       1  UNL1        0.1424
     13 H         143.6886  145.5554  161.7597 H       1  UNL1        0.1424
     14 C         140.5193  141.1497  165.4233 C.ar    1  UNL1        0.0295
     15 C         140.2854  141.0662  166.9026 C.ar    1  UNL1        0.0070
     16 C         139.3588  139.9154  167.1612 C.ar    1  UNL1        0.0075
     17 C         139.0201  139.2875  165.8417 C.ar    1  UNL1        0.0354
     18 S         139.7373  140.0504  164.7676 S.2     1  UNL1       -0.0864
     19 C         141.3023  144.2196  158.8030 C.ar    1  UNL1        0.0537
     20 C         140.0164  143.7695  158.1754 C.ar    1  UNL1        0.0042
     21 C         139.5787  144.3501  156.8634 C.ar    1  UNL1       -0.0028
     22 C         140.4269  145.3808  156.1791 C.ar    1  UNL1       -0.0061
     23 C         141.7127  145.8309  156.8067 C.ar    1  UNL1       -0.0028
     24 C         142.1505  145.2503  158.1187 C.ar    1  UNL1        0.0042
     25 C         139.9891  145.9613  154.8671 C.3     1  UNL1        0.0991
     26 N         139.7440  147.4360  154.7439 N.3     1  UNL1       -0.2689
     27 C         140.3270  148.1997  153.5921 C.3     1  UNL1        0.0737
     28 C         140.0818  149.6744  153.4690 C.3     1  UNL1        0.0318
     29 C         139.2536  150.3854  154.4978 C.3     1  UNL1        0.0446
     30 C         138.4502  151.2276  155.4440 C.3     1  UNL1        0.0160
     31 C         138.4689  152.6395  154.9378 C.3     1  UNL1        0.0184
     32 C         139.2837  152.6699  153.6788 C.3     1  UNL1        0.0685
     33 N         139.7687  151.2768  153.4068 N.3     1  UNL1       -0.2995
     34 C         138.6705  149.6218  155.6496 C.3     1  UNL1        0.0318
     35 C         138.9157  148.1471  155.7727 C.3     1  UNL1        0.0737
     36 H         140.7886  151.2606  153.3992 H       1  UNL1        0.1232
@<TRIPOS>BOND
     1     5     6    1
     2     6     7   ar
     3     7     8   ar
     4     8     9   ar
     5     9    14    1
     6    14    15   ar
     7    15    16   ar
     8    16    17   ar
     9    17    18   ar
    10     9    10   ar
    11    10    11   ar
    12    11     1    1
    13     1     2   am
    14     2     3    2
    15     2    19    1
    16    19    20   ar
    17    20    21   ar
    18    21    22   ar
    19    22    25    1
    20    25    26    1
    21    26    27    1
    22    27    28    1
    23    28    29    1
    24    29    30    1
    25    30    31    1
    26    31    32    1
    27    32    33    1
    28    29    34    1
    29    34    35    1
    30    22    23   ar
    31    23    24   ar
    32    11     6   ar
    33    24    19   ar
    34    18    14   ar
    35    35    26    1
    36    33    29    1
    37     5    12    1
    38     5    13    1
    39     1     4    1
    40    33    36    1
@<TRIPOS>MOLECULE
*****
 36 40 0 0 0
SMALL
GASTEIGER

@<TRIPOS>ATOM
      1 N         141.3817  144.0093  159.0610 N.am    1  UNL1       -0.2794
      2 C         140.9782  144.6425  160.3595 C.2     1  UNL1        0.2495
      3 O         139.9228  145.7083  160.3781 O.2     1  UNL1       -0.2698
      4 H         142.0744  143.3098  159.0487 H       1  UNL1        0.1552
      5 N         142.4575  146.3687  157.5523 N.pl3   1  UNL1       -0.3560
      6 C         141.2677  145.6215  157.0268 C.ar    1  UNL1        0.0552
      7 C         140.6159  146.0539  155.7470 C.ar    1  UNL1        0.0154
      8 C         139.4261  145.3066  155.2215 C.ar    1  UNL1        0.0018
      9 C         138.8883  144.1270  155.9758 C.ar    1  UNL1        0.0073
     10 C         139.5401  143.6945  157.2556 C.ar    1  UNL1        0.0164
     11 C         140.7299  144.4417  157.7811 C.ar    1  UNL1        0.0636
     12 H         142.8105  147.1430  157.0572 H       1  UNL1        0.1424
     13 H         142.8853  146.0848  158.3923 H       1  UNL1        0.1424
     14 C         137.6985  143.3797  155.4503 C.ar    1  UNL1        0.0295
     15 C         136.8992  142.3554  156.1999 C.ar    1  UNL1        0.0070
     16 C         135.8059  141.8681  155.2959 C.ar    1  UNL1        0.0075
     17 C         135.9295  142.5913  153.9876 C.ar    1  UNL1        0.0354
     18 S         137.0992  143.5255  154.0830 S.2     1  UNL1       -0.0864
     19 C         141.6300  144.2101  161.6394 C.ar    1  UNL1        0.0537
     20 C         142.3027  142.8721  161.7239 C.ar    1  UNL1        0.0042
     21 C         142.9545  142.4398  163.0038 C.ar    1  UNL1       -0.0028
     22 C         142.9335  143.3455  164.1994 C.ar    1  UNL1       -0.0061
     23 C         142.2608  144.6836  164.1149 C.ar    1  UNL1       -0.0028
     24 C         141.6090  145.1158  162.8350 C.ar    1  UNL1        0.0042
     25 C         143.5853  142.9132  165.4793 C.3     1  UNL1        0.0991
     26 N         142.7519  142.3516  166.5929 N.3     1  UNL1       -0.2689
     27 C         143.3048  142.2901  167.9859 C.3     1  UNL1        0.0737
     28 C         142.4713  141.7285  169.0995 C.3     1  UNL1        0.0318
     29 C         141.0851  141.2284  168.8201 C.3     1  UNL1        0.0446
     30 C         139.6895  140.6934  168.6934 C.3     1  UNL1        0.0160
     31 C         139.2429  140.2376  170.0509 C.3     1  UNL1        0.0184
     32 C         140.3624  140.4909  171.0165 C.3     1  UNL1        0.0685
     33 N         141.5010  141.1032  170.2558 N.3     1  UNL1       -0.2995
     34 C         140.5322  141.2899  167.4270 C.3     1  UNL1        0.0318
     35 C         141.3657  141.8515  166.3135 C.3     1  UNL1        0.0737
     36 H         142.3253  140.5066  170.3266 H       1  UNL1        0.1232
@<TRIPOS>BOND
     1     5     6    1
     2     6     7   ar
     3     7     8   ar
     4     8     9   ar
     5     9    14    1
     6    14    15   ar
     7    15    16   ar
     8    16    17   ar
     9    17    18   ar
    10     9    10   ar
    11    10    11   ar
    12    11     1    1
    13     1     2   am
    14     2     3    2
    15     2    19    1
    16    19    20   ar
    17    20    21   ar
    18    21    22   ar
    19    22    25    1
    20    25    26    1
    21    26    27    1
    22    27    28    1
    23    28    29    1
    24    29    30    1
    25    30    31    1
    26    31    32    1
    27    32    33    1
    28    29    34    1
    29    34    35    1
    30    22    23   ar
    31    23    24   ar
    32    11     6   ar
    33    24    19   ar
    34    18    14   ar
    35    35    26    1
    36    33    29    1
    37     5    12    1
    38     5    13    1
    39     1     4    1
    40    33    36    1
@<TRIPOS>MOLECULE
*****
 36 40 0 0 0
SMALL
GASTEIGER

@<TRIPOS>ATOM
      1 N         140.9299  144.5520  158.0738 N.am    1  UNL1       -0.2794
      2 C         140.7317  144.8916  159.5213 C.2     1  UNL1        0.2495
      3 O         139.5889  145.7703  159.9359 O.2     1  UNL1       -0.2698
      4 H         141.6800  143.9753  157.8017 H       1  UNL1        0.1552
      5 N         139.0042  142.7102  156.6956 N.pl3   1  UNL1       -0.3560
      6 C         139.0224  144.1701  156.3517 C.ar    1  UNL1        0.0552
      7 C         138.0777  144.7091  155.3188 C.ar    1  UNL1        0.0154
      8 C         138.0960  146.1691  154.9749 C.ar    1  UNL1        0.0018
      9 C         139.0588  147.0900  155.6640 C.ar    1  UNL1        0.0073
     10 C         140.0034  146.5509  156.6969 C.ar    1  UNL1        0.0164
     11 C         139.9852  145.0910  157.0408 C.ar    1  UNL1        0.0636
     12 H         138.3722  142.1058  156.2433 H       1  UNL1        0.1424
     13 H         139.6242  142.3564  157.3736 H       1  UNL1        0.1424
     14 C         139.0770  148.5500  155.3201 C.ar    1  UNL1        0.0295
     15 C         139.7413  149.1659  154.1246 C.ar    1  UNL1        0.0070
     16 C         139.5090  150.6469  154.1770 C.ar    1  UNL1        0.0075
     17 C         138.7013  150.9463  155.4049 C.ar    1  UNL1        0.0354
     18 S         138.4343  149.6502  156.1115 S.2     1  UNL1       -0.0864
     19 C         141.6764  144.3526  160.5544 C.ar    1  UNL1        0.0537
     20 C         142.6981  143.3230  160.1721 C.ar    1  UNL1        0.0042
     21 C         143.6426  142.7841  161.2053 C.ar    1  UNL1       -0.0028
     22 C         143.5655  143.2748  162.6207 C.ar    1  UNL1       -0.0061
     23 C         142.5439  144.3044  163.0029 C.ar    1  UNL1       -0.0028
     24 C         141.5993  144.8433  161.9698 C.ar    1  UNL1        0.0042
     25 C         144.5101  142.7359  163.6537 C.3     1  UNL1        0.0991
     26 N         143.9753  142.1608  164.9317 N.3     1  UNL1       -0.2689
     27 C         143.5329  140.7285  164.9825 C.3     1  UNL1        0.0737
     28 C         142.9981  140.1535  166.2606 C.3     1  UNL1        0.0318
     29 C         142.9057  141.0109  167.4879 C.3     1  UNL1        0.0446
     30 C         142.7548  141.7425  168.7886 C.3     1  UNL1        0.0160
     31 C         142.1838  140.7871  169.7942 C.3     1  UNL1        0.0184
     32 C         141.9817  139.4651  169.1149 C.3     1  UNL1        0.0685
     33 N         142.4279  139.6034  167.6895 N.3     1  UNL1       -0.2995
     34 C         143.3481  142.4433  167.4371 C.3     1  UNL1        0.0318
     35 C         143.8829  143.0182  166.1590 C.3     1  UNL1        0.0737
     36 H         141.6473  139.4096  167.0621 H       1  UNL1        0.1232
@<TRIPOS>BOND
     1     5     6    1
     2     6     7   ar
     3     7     8   ar
     4     8     9   ar
     5     9    14    1
     6    14    15   ar
     7    15    16   ar
     8    16    17   ar
     9    17    18   ar
    10     9    10   ar
    11    10    11   ar
    12    11     1    1
    13     1     2   am
    14     2     3    2
    15     2    19    1
    16    19    20   ar
    17    20    21   ar
    18    21    22   ar
    19    22    25    1
    20    25    26    1
    21    26    27    1
    22    27    28    1
    23    28    29    1
    24    29    30    1
    25    30    31    1
    26    31    32    1
    27    32    33    1
    28    29    34    1
    29    34    35    1
    30    22    23   ar
    31    23    24   ar
    32    11     6   ar
    33    24    19   ar
    34    18    14   ar
    35    35    26    1
    36    33    29    1
    37     5    12    1
    38     5    13    1
    39     1     4    1
    40    33    36    1
