@<TRIPOS>MOLECULE
*****
 35 40 0 0 0
SMALL
GASTEIGER

@<TRIPOS>ATOM
      1 C         141.0006  141.6076  166.7780 C.ar    1  UNL1        0.0844
      2 N         140.8925  141.8421  168.2556 N.ar    1  UNL1       -0.2240
      3 C         140.0020  140.9700  169.0901 C.ar    1  UNL1        0.1988
      4 N         139.2196  139.8634  168.4470 N.ar    1  UNL1       -0.2240
      5 C         139.3278  139.6290  166.9694 C.ar    1  UNL1        0.0845
      6 C         138.5455  138.5225  166.3264 C.ar    1  UNL1        0.0192
      7 C         138.6536  138.2880  164.8488 C.ar    1  UNL1        0.0016
      8 C         139.5441  139.1601  164.0142 C.ar    1  UNL1        0.0016
      9 C         140.3264  140.2667  164.6573 C.ar    1  UNL1        0.0030
     10 C         140.2183  140.5011  166.1349 C.ar    1  UNL1        0.0354
     11 C         139.6522  138.9257  162.5366 C.ar    1  UNL1        0.0192
     12 C         138.4275  139.0003  161.6737 C.ar    1  UNL1        0.0988
     13 N         138.5356  138.7659  160.1962 N.ar    1  UNL1       -0.2438
     14 C         139.8685  138.4568  159.5814 C.ar    1  UNL1        0.0813
     15 C         139.9766  138.2224  158.1038 C.ar    1  UNL1        0.0191
     16 C         141.3095  137.9134  157.4890 C.ar    1  UNL1        0.0015
     17 C         142.5342  137.8388  158.3518 C.ar    1  UNL1        0.0001
     18 C         142.4261  138.0732  159.8293 C.ar    1  UNL1        0.0015
     19 C         141.0932  138.3822  160.4441 C.ar    1  UNL1        0.0177
     20 C         140.9851  138.6167  161.9218 C.ar    1  UNL1        0.0030
     21 C         142.2207  144.0800  163.9234 C.ar    1  UNL1        0.0536
     22 C         143.6720  144.2239  164.2742 C.ar    1  UNL1        0.0045
     23 C         144.2328  143.4958  165.4597 C.ar    1  UNL1        0.0002
     24 C         143.3423  142.6237  166.2943 C.ar    1  UNL1        0.0015
     25 C         141.8911  142.4797  165.9434 C.ar    1  UNL1        0.0179
     26 C         141.3303  143.2079  164.7580 C.ar    1  UNL1        0.0060
     27 C         143.1621  143.1042  157.1846 C.3     1  UNL1        0.0897
     28 N         142.7865  143.5302  158.5729 N.3     1  UNL1       -0.2686
     29 C         143.3473  142.8020  159.7584 C.3     1  UNL1        0.0939
     30 C         142.9718  143.2280  161.1467 C.3     1  UNL1        0.1110
     31 N         142.0354  144.3822  161.3496 N.am    1  UNL1       -0.2732
     32 C         141.6599  144.8081  162.7379 C.2     1  UNL1        0.2491
     33 O         140.7235  145.9623  162.9409 O.2     1  UNL1       -0.2699
     34 C         141.4746  145.1103  160.1642 C.3     1  UNL1        0.1110
     35 C         141.8502  144.6843  158.7758 C.3     1  UNL1        0.0939
@<TRIPOS>BOND
     1    27    28    1
     2    28    29    1
     3    29    30    1
     4    30    31    1
     5    31    32   am
     6    32    33    2
     7    32    21    1
     8    21    22   ar
     9    22    23   ar
    10    23    24   ar
    11    24    25   ar
    12    25     1    1
    13     1     2   ar
    14     2     3   ar
    15     3     4   ar
    16     4     5   ar
    17     5     6   ar
    18     6     7   ar
    19     7     8   ar
    20     8    11    1
    21    11    12   ar
    22    12    13   ar
    23    13    14   ar
    24    14    15   ar
    25    15    16   ar
    26    16    17   ar
    27    17    18   ar
    28    18    19   ar
    29    19    20   ar
    30     8     9   ar
    31     9    10   ar
    32    25    26   ar
    33    31    34    1
    34    34    35    1
    35    35    28    1
    36    26    21   ar
    37    10     1   ar
    38    10     5   ar
    39    20    11   ar
    40    19    14   ar
@<TRIPOS>MOLECULE
*****
 35 40 0 0 0
SMALL
GASTEIGER

@<TRIPOS>ATOM
      1 C         141.4582  141.6632  167.1161 C.ar    1  UNL1        0.0844
      2 N         141.7644  141.6241  168.5839 N.ar    1  UNL1       -0.2240
      3 C         140.9491  140.7574  169.4972 C.ar    1  UNL1        0.1988
      4 N         139.8277  139.9299  168.9427 N.ar    1  UNL1       -0.2240
      5 C         139.5215  139.9690  167.4748 C.ar    1  UNL1        0.0845
      6 C         138.4000  139.1415  166.9202 C.ar    1  UNL1        0.0192
      7 C         138.0939  139.1806  165.4524 C.ar    1  UNL1        0.0016
      8 C         138.9092  140.0473  164.5390 C.ar    1  UNL1        0.0016
      9 C         140.0306  140.8749  165.0936 C.ar    1  UNL1        0.0030
     10 C         140.3368  140.8357  166.5615 C.ar    1  UNL1        0.0354
     11 C         138.6030  140.0865  163.0711 C.ar    1  UNL1        0.0192
     12 C         138.0560  138.8691  162.3863 C.ar    1  UNL1        0.0988
     13 N         137.7498  138.9082  160.9185 N.ar    1  UNL1       -0.2438
     14 C         137.9906  140.1647  160.1353 C.ar    1  UNL1        0.0813
     15 C         137.6844  140.2038  158.6674 C.ar    1  UNL1        0.0191
     16 C         137.9252  141.4603  157.8843 C.ar    1  UNL1        0.0015
     17 C         138.4722  142.6776  158.5690 C.ar    1  UNL1        0.0001
     18 C         138.7783  142.6385  160.0369 C.ar    1  UNL1        0.0015
     19 C         138.5376  141.3820  160.8200 C.ar    1  UNL1        0.0177
     20 C         138.8438  141.3429  162.2880 C.ar    1  UNL1        0.0030
     21 C         142.4429  144.0560  164.1069 C.ar    1  UNL1        0.0536
     22 C         143.9040  144.2633  164.3759 C.ar    1  UNL1        0.0045
     23 C         144.5498  143.6038  165.5583 C.ar    1  UNL1        0.0002
     24 C         143.7345  142.7371  166.4717 C.ar    1  UNL1        0.0015
     25 C         142.2735  142.5299  166.2027 C.ar    1  UNL1        0.0179
     26 C         141.6277  143.1894  165.0203 C.ar    1  UNL1        0.0060
     27 C         143.2138  142.9589  157.3652 C.3     1  UNL1        0.0897
     28 N         142.8596  143.3980  158.7550 N.3     1  UNL1       -0.2686
     29 C         143.5054  142.7386  159.9374 C.3     1  UNL1        0.0939
     30 C         143.1513  143.1777  161.3272 C.3     1  UNL1        0.1110
     31 N         142.1513  144.2764  161.5347 N.am    1  UNL1       -0.2732
     32 C         141.7971  144.7155  162.9245 C.2     1  UNL1        0.2491
     33 O         140.7971  145.8142  163.1321 O.2     1  UNL1       -0.2699
     34 C         141.5054  144.9358  160.3523 C.3     1  UNL1        0.1110
     35 C         141.8596  144.4966  158.9624 C.3     1  UNL1        0.0939
@<TRIPOS>BOND
     1    27    28    1
     2    28    29    1
     3    29    30    1
     4    30    31    1
     5    31    32   am
     6    32    33    2
     7    32    21    1
     8    21    22   ar
     9    22    23   ar
    10    23    24   ar
    11    24    25   ar
    12    25     1    1
    13     1     2   ar
    14     2     3   ar
    15     3     4   ar
    16     4     5   ar
    17     5     6   ar
    18     6     7   ar
    19     7     8   ar
    20     8    11    1
    21    11    12   ar
    22    12    13   ar
    23    13    14   ar
    24    14    15   ar
    25    15    16   ar
    26    16    17   ar
    27    17    18   ar
    28    18    19   ar
    29    19    20   ar
    30     8     9   ar
    31     9    10   ar
    32    25    26   ar
    33    31    34    1
    34    34    35    1
    35    35    28    1
    36    26    21   ar
    37    10     1   ar
    38    10     5   ar
    39    20    11   ar
    40    19    14   ar
@<TRIPOS>MOLECULE
*****
 35 40 0 0 0
SMALL
GASTEIGER

@<TRIPOS>ATOM
      1 C         140.7554  141.3624  166.6622 C.ar    1  UNL1        0.0844
      2 N         140.4895  141.2442  168.1337 N.ar    1  UNL1       -0.2240
      3 C         141.2998  140.2973  168.9685 C.ar    1  UNL1        0.1988
      4 N         142.3758  139.4687  168.3318 N.ar    1  UNL1       -0.2240
      5 C         142.6417  139.5869  166.8603 C.ar    1  UNL1        0.0845
      6 C         143.7178  138.7583  166.2236 C.ar    1  UNL1        0.0192
      7 C         143.9836  138.8765  164.7521 C.ar    1  UNL1        0.0016
      8 C         143.1734  139.8234  163.9172 C.ar    1  UNL1        0.0016
      9 C         142.0973  140.6521  164.5539 C.ar    1  UNL1        0.0030
     10 C         141.8315  140.5338  166.0255 C.ar    1  UNL1        0.0354
     11 C         143.4392  139.9417  162.4458 C.ar    1  UNL1        0.0192
     12 C         143.7044  138.7109  161.6302 C.ar    1  UNL1        0.0988
     13 N         143.9703  138.8292  160.1587 N.ar    1  UNL1       -0.2438
     14 C         143.9709  140.1781  159.5027 C.ar    1  UNL1        0.0813
     15 C         144.2368  140.2963  158.0312 C.ar    1  UNL1        0.0191
     16 C         144.2375  141.6453  157.3752 C.ar    1  UNL1        0.0015
     17 C         143.9723  142.8760  158.1907 C.ar    1  UNL1        0.0001
     18 C         143.7065  142.7577  159.6621 C.ar    1  UNL1        0.0015
     19 C         143.7058  141.4088  160.3182 C.ar    1  UNL1        0.0177
     20 C         143.4399  141.2906  161.7897 C.ar    1  UNL1        0.0030
     21 C         138.6522  142.8353  163.6361 C.ar    1  UNL1        0.0536
     22 C         138.3246  144.2031  164.1576 C.ar    1  UNL1        0.0045
     23 C         138.8074  144.6240  165.5141 C.ar    1  UNL1        0.0002
     24 C         139.6176  143.6771  166.3489 C.ar    1  UNL1        0.0015
     25 C         139.9451  142.3094  165.8274 C.ar    1  UNL1        0.0179
     26 C         139.4624  141.8885  164.4709 C.ar    1  UNL1        0.0060
     27 C         140.7540  144.6509  157.3484 C.3     1  UNL1        0.0897
     28 N         140.1079  144.0918  158.5812 N.3     1  UNL1       -0.2686
     29 C         140.5906  144.5127  159.9376 C.3     1  UNL1        0.0939
     30 C         139.9445  143.9536  161.1704 C.3     1  UNL1        0.1110
     31 N         138.8156  142.9735  161.0469 N.am    1  UNL1       -0.2732
     32 C         138.1695  142.4144  162.2797 C.2     1  UNL1        0.2491
     33 O         137.0406  141.4344  162.1561 O.2     1  UNL1       -0.2699
     34 C         138.3329  142.5527  159.6905 C.3     1  UNL1        0.1110
     35 C         138.9791  143.1118  158.4576 C.3     1  UNL1        0.0939
@<TRIPOS>BOND
     1    27    28    1
     2    28    29    1
     3    29    30    1
     4    30    31    1
     5    31    32   am
     6    32    33    2
     7    32    21    1
     8    21    22   ar
     9    22    23   ar
    10    23    24   ar
    11    24    25   ar
    12    25     1    1
    13     1     2   ar
    14     2     3   ar
    15     3     4   ar
    16     4     5   ar
    17     5     6   ar
    18     6     7   ar
    19     7     8   ar
    20     8    11    1
    21    11    12   ar
    22    12    13   ar
    23    13    14   ar
    24    14    15   ar
    25    15    16   ar
    26    16    17   ar
    27    17    18   ar
    28    18    19   ar
    29    19    20   ar
    30     8     9   ar
    31     9    10   ar
    32    25    26   ar
    33    31    34    1
    34    34    35    1
    35    35    28    1
    36    26    21   ar
    37    10     1   ar
    38    10     5   ar
    39    20    11   ar
    40    19    14   ar
@<TRIPOS>MOLECULE
*****
 35 40 0 0 0
SMALL
GASTEIGER

@<TRIPOS>ATOM
      1 C         140.6174  142.1184  165.8683 C.ar    1  UNL1        0.0844
      2 N         140.5838  142.6184  167.2821 N.ar    1  UNL1       -0.2240
      3 C         141.4794  142.0036  168.3165 C.ar    1  UNL1        0.1988
      4 N         142.4086  140.8889  167.9370 N.ar    1  UNL1       -0.2240
      5 C         142.4422  140.3889  166.5232 C.ar    1  UNL1        0.0845
      6 C         143.3714  139.2742  166.1438 C.ar    1  UNL1        0.0192
      7 C         143.4050  138.7743  164.7300 C.ar    1  UNL1        0.0016
      8 C         142.5093  139.3890  163.6955 C.ar    1  UNL1        0.0016
      9 C         141.5802  140.5038  164.0750 C.ar    1  UNL1        0.0030
     10 C         141.5466  141.0037  165.4889 C.ar    1  UNL1        0.0354
     11 C         142.5429  138.8891  162.2817 C.ar    1  UNL1        0.0192
     12 C         143.7837  138.2387  161.7455 C.ar    1  UNL1        0.0988
     13 N         143.8173  137.7388  160.3317 N.ar    1  UNL1       -0.2438
     14 C         142.6102  137.8891  159.4541 C.ar    1  UNL1        0.0813
     15 C         142.6438  137.3892  158.0403 C.ar    1  UNL1        0.0191
     16 C         141.4366  137.5395  157.1627 C.ar    1  UNL1        0.0015
     17 C         140.1959  138.1899  157.6989 C.ar    1  UNL1        0.0001
     18 C         140.1623  138.6898  159.1127 C.ar    1  UNL1        0.0015
     19 C         141.3694  138.5395  159.9903 C.ar    1  UNL1        0.0177
     20 C         141.3358  139.0395  161.4041 C.ar    1  UNL1        0.0030
     21 C         139.4023  144.2527  162.7509 C.ar    1  UNL1        0.0536
     22 C         137.9306  143.9628  162.7650 C.ar    1  UNL1        0.0045
     23 C         137.3545  143.0580  163.8137 C.ar    1  UNL1        0.0002
     24 C         138.2502  142.4433  164.8481 C.ar    1  UNL1        0.0015
     25 C         139.7218  142.7332  164.8339 C.ar    1  UNL1        0.0179
     26 C         140.2978  143.6379  163.7853 C.ar    1  UNL1        0.0060
     27 C         142.4795  142.8249  156.7724 C.3     1  UNL1        0.0897
     28 N         141.8542  143.4080  158.0049 N.3     1  UNL1       -0.2686
     29 C         141.2781  142.5033  159.0535 C.3     1  UNL1        0.0939
     30 C         140.6529  143.0864  160.2859 C.3     1  UNL1        0.1110
     31 N         140.6036  144.5743  160.4698 N.am    1  UNL1       -0.2732
     32 C         139.9784  145.1574  161.7022 C.2     1  UNL1        0.2491
     33 O         139.9291  146.6454  161.8861 O.2     1  UNL1       -0.2699
     34 C         141.1797  145.4790  159.4212 C.3     1  UNL1        0.1110
     35 C         141.8050  144.8958  158.1887 C.3     1  UNL1        0.0939
@<TRIPOS>BOND
     1    27    28    1
     2    28    29    1
     3    29    30    1
     4    30    31    1
     5    31    32   am
     6    32    33    2
     7    32    21    1
     8    21    22   ar
     9    22    23   ar
    10    23    24   ar
    11    24    25   ar
    12    25     1    1
    13     1     2   ar
    14     2     3   ar
    15     3     4   ar
    16     4     5   ar
    17     5     6   ar
    18     6     7   ar
    19     7     8   ar
    20     8    11    1
    21    11    12   ar
    22    12    13   ar
    23    13    14   ar
    24    14    15   ar
    25    15    16   ar
    26    16    17   ar
    27    17    18   ar
    28    18    19   ar
    29    19    20   ar
    30     8     9   ar
    31     9    10   ar
    32    25    26   ar
    33    31    34    1
    34    34    35    1
    35    35    28    1
    36    26    21   ar
    37    10     1   ar
    38    10     5   ar
    39    20    11   ar
    40    19    14   ar
@<TRIPOS>MOLECULE
*****
 35 40 0 0 0
SMALL
GASTEIGER

@<TRIPOS>ATOM
      1 C         141.4715  143.5595  161.3889 C.ar    1  UNL1        0.0844
      2 N         141.3389  144.4048  160.1569 N.ar    1  UNL1       -0.2240
      3 C         140.3290  145.5130  160.1128 C.ar    1  UNL1        0.1988
      4 N         139.4517  145.7758  161.3008 N.ar    1  UNL1       -0.2240
      5 C         139.5842  144.9305  162.5327 C.ar    1  UNL1        0.0845
      6 C         138.7069  145.1933  163.7207 C.ar    1  UNL1        0.0192
      7 C         138.8394  144.3480  164.9526 C.ar    1  UNL1        0.0016
      8 C         139.8494  143.2398  164.9967 C.ar    1  UNL1        0.0016
      9 C         140.7268  142.9769  163.8088 C.ar    1  UNL1        0.0030
     10 C         140.5942  143.8223  162.5768 C.ar    1  UNL1        0.0354
     11 C         139.9820  142.3944  166.2287 C.ar    1  UNL1        0.0192
     12 C         139.6421  140.9343  166.1766 C.ar    1  UNL1        0.0988
     13 N         139.7746  140.0890  167.4086 N.ar    1  UNL1       -0.2438
     14 C         140.2471  140.7037  168.6927 C.ar    1  UNL1        0.0813
     15 C         140.3797  139.8584  169.9247 C.ar    1  UNL1        0.0191
     16 C         140.8522  140.4731  171.2088 C.ar    1  UNL1        0.0015
     17 C         141.1921  141.9331  171.2609 C.ar    1  UNL1        0.0001
     18 C         141.0595  142.7784  170.0289 C.ar    1  UNL1        0.0015
     19 C         140.5870  142.1637  168.7448 C.ar    1  UNL1        0.0177
     20 C         140.4545  143.0091  167.5128 C.ar    1  UNL1        0.0030
     21 C         143.1851  140.0232  160.8335 C.ar    1  UNL1        0.0536
     22 C         144.5013  140.2349  161.5211 C.ar    1  UNL1        0.0045
     23 C         144.8076  141.5547  162.1646 C.ar    1  UNL1        0.0002
     24 C         143.7977  142.6630  162.1205 C.ar    1  UNL1        0.0015
     25 C         142.4815  142.4513  161.4330 C.ar    1  UNL1        0.0179
     26 C         142.1752  141.1314  160.7894 C.ar    1  UNL1        0.0060
     27 C         143.1662  138.1360  154.2238 C.3     1  UNL1        0.0897
     28 N         143.0944  138.2779  155.7154 N.3     1  UNL1       -0.2686
     29 C         143.4006  139.5978  156.3589 C.3     1  UNL1        0.0939
     30 C         143.3288  139.7396  157.8504 C.3     1  UNL1        0.1110
     31 N         142.9506  138.5615  158.6985 N.am    1  UNL1       -0.2732
     32 C         142.8788  138.7033  160.1900 C.2     1  UNL1        0.2491
     33 O         142.5006  137.5253  161.0381 O.2     1  UNL1       -0.2699
     34 C         142.6443  137.2416  158.0550 C.3     1  UNL1        0.1110
     35 C         142.7162  137.0998  156.5634 C.3     1  UNL1        0.0939
@<TRIPOS>BOND
     1    27    28    1
     2    28    29    1
     3    29    30    1
     4    30    31    1
     5    31    32   am
     6    32    33    2
     7    32    21    1
     8    21    22   ar
     9    22    23   ar
    10    23    24   ar
    11    24    25   ar
    12    25     1    1
    13     1     2   ar
    14     2     3   ar
    15     3     4   ar
    16     4     5   ar
    17     5     6   ar
    18     6     7   ar
    19     7     8   ar
    20     8    11    1
    21    11    12   ar
    22    12    13   ar
    23    13    14   ar
    24    14    15   ar
    25    15    16   ar
    26    16    17   ar
    27    17    18   ar
    28    18    19   ar
    29    19    20   ar
    30     8     9   ar
    31     9    10   ar
    32    25    26   ar
    33    31    34    1
    34    34    35    1
    35    35    28    1
    36    26    21   ar
    37    10     1   ar
    38    10     5   ar
    39    20    11   ar
    40    19    14   ar
@<TRIPOS>MOLECULE
*****
 35 40 0 0 0
SMALL
GASTEIGER

@<TRIPOS>ATOM
      1 C         141.4951  140.8469  167.2630 C.ar    1  UNL1        0.0844
      2 N         141.5724  140.8871  168.7604 N.ar    1  UNL1       -0.2240
      3 C         142.5877  141.7606  169.4358 C.ar    1  UNL1        0.1988
      4 N         143.5256  142.5940  168.6137 N.ar    1  UNL1       -0.2240
      5 C         143.4483  142.5538  167.1163 C.ar    1  UNL1        0.0845
      6 C         144.3862  143.3872  166.2942 C.ar    1  UNL1        0.0192
      7 C         144.3089  143.3470  164.7968 C.ar    1  UNL1        0.0016
      8 C         143.2936  142.4734  164.1213 C.ar    1  UNL1        0.0016
      9 C         142.3556  141.6401  164.9434 C.ar    1  UNL1        0.0030
     10 C         142.4330  141.6803  166.4409 C.ar    1  UNL1        0.0354
     11 C         143.2162  142.4333  162.6239 C.ar    1  UNL1        0.0192
     12 C         143.1724  143.7118  161.8406 C.ar    1  UNL1        0.0988
     13 N         143.0950  143.6716  160.3431 N.ar    1  UNL1       -0.2438
     14 C         143.0616  142.3529  159.6289 C.ar    1  UNL1        0.0813
     15 C         142.9843  142.3128  158.1315 C.ar    1  UNL1        0.0191
     16 C         142.9508  140.9941  157.4173 C.ar    1  UNL1        0.0015
     17 C         142.9947  139.7157  158.2006 C.ar    1  UNL1        0.0001
     18 C         143.0720  139.7558  159.6980 C.ar    1  UNL1        0.0015
     19 C         143.1055  141.0745  160.4122 C.ar    1  UNL1        0.0177
     20 C         143.1828  141.1146  161.9097 C.ar    1  UNL1        0.0030
     21 C         139.7389  138.5517  164.5431 C.ar    1  UNL1        0.0536
     22 C         138.4493  138.2263  165.2367 C.ar    1  UNL1        0.0045
     23 C         138.1750  138.7743  166.6058 C.ar    1  UNL1        0.0002
     24 C         139.1903  139.6479  167.2812 C.ar    1  UNL1        0.0015
     25 C         140.4798  139.9734  166.5876 C.ar    1  UNL1        0.0179
     26 C         140.7541  139.4253  165.2185 C.ar    1  UNL1        0.0060
     27 C         137.9306  140.8603  158.3262 C.3     1  UNL1        0.0897
     28 N         138.4512  140.1462  159.5381 N.3     1  UNL1       -0.2686
     29 C         138.1769  140.6943  160.9072 C.3     1  UNL1        0.0939
     30 C         138.6976  139.9801  162.1191 C.3     1  UNL1        0.1110
     31 N         139.4926  138.7178  161.9620 N.am    1  UNL1       -0.2732
     32 C         140.0132  138.0037  163.1740 C.2     1  UNL1        0.2491
     33 O         140.8083  136.7414  163.0169 O.2     1  UNL1       -0.2699
     34 C         139.7669  138.1697  160.5930 C.3     1  UNL1        0.1110
     35 C         139.2462  138.8840  159.3810 C.3     1  UNL1        0.0939
@<TRIPOS>BOND
     1    27    28    1
     2    28    29    1
     3    29    30    1
     4    30    31    1
     5    31    32   am
     6    32    33    2
     7    32    21    1
     8    21    22   ar
     9    22    23   ar
    10    23    24   ar
    11    24    25   ar
    12    25     1    1
    13     1     2   ar
    14     2     3   ar
    15     3     4   ar
    16     4     5   ar
    17     5     6   ar
    18     6     7   ar
    19     7     8   ar
    20     8    11    1
    21    11    12   ar
    22    12    13   ar
    23    13    14   ar
    24    14    15   ar
    25    15    16   ar
    26    16    17   ar
    27    17    18   ar
    28    18    19   ar
    29    19    20   ar
    30     8     9   ar
    31     9    10   ar
    32    25    26   ar
    33    31    34    1
    34    34    35    1
    35    35    28    1
    36    26    21   ar
    37    10     1   ar
    38    10     5   ar
    39    20    11   ar
    40    19    14   ar
@<TRIPOS>MOLECULE
*****
 35 40 0 0 0
SMALL
GASTEIGER

@<TRIPOS>ATOM
      1 C         139.9202  142.6761  160.1538 C.ar    1  UNL1        0.0844
      2 N         139.9432  143.4690  158.8807 N.ar    1  UNL1       -0.2240
      3 C         140.0124  144.9665  158.9311 C.ar    1  UNL1        0.1988
      4 N         140.0587  145.6711  160.2545 N.ar    1  UNL1       -0.2240
      5 C         140.0357  144.8782  161.5275 C.ar    1  UNL1        0.0845
      6 C         140.0819  145.5828  162.8509 C.ar    1  UNL1        0.0192
      7 C         140.0589  144.7899  164.1240 C.ar    1  UNL1        0.0016
      8 C         139.9896  143.2923  164.0737 C.ar    1  UNL1        0.0016
      9 C         139.9434  142.5877  162.7503 C.ar    1  UNL1        0.0030
     10 C         139.9664  143.3807  161.4772 C.ar    1  UNL1        0.0354
     11 C         139.9666  142.4994  165.3467 C.ar    1  UNL1        0.0192
     12 C         139.5790  141.0505  165.3210 C.ar    1  UNL1        0.0988
     13 N         139.5560  140.2576  166.5941 N.ar    1  UNL1       -0.2438
     14 C         139.9206  140.9134  167.8928 C.ar    1  UNL1        0.0813
     15 C         139.8976  140.1205  169.1659 C.ar    1  UNL1        0.0191
     16 C         140.2623  140.7764  170.4647 C.ar    1  UNL1        0.0015
     17 C         140.6500  142.2252  170.4904 C.ar    1  UNL1        0.0001
     18 C         140.6730  143.0181  169.2174 C.ar    1  UNL1        0.0015
     19 C         140.3083  142.3622  167.9186 C.ar    1  UNL1        0.0177
     20 C         140.3313  143.1552  166.6455 C.ar    1  UNL1        0.0030
     21 C         140.8939  138.8997  159.4185 C.ar    1  UNL1        0.0536
     22 C         139.7126  138.1833  160.0028 C.ar    1  UNL1        0.0045
     23 C         138.6004  138.9646  160.6374 C.ar    1  UNL1        0.0002
     24 C         138.6697  140.4622  160.6878 C.ar    1  UNL1        0.0015
     25 C         139.8510  141.1785  160.1034 C.ar    1  UNL1        0.0179
     26 C         140.9631  140.3972  159.4688 C.ar    1  UNL1        0.0060
     27 C         141.1014  135.3182  153.5551 C.3     1  UNL1        0.0897
     28 N         141.3275  136.0183  154.8622 N.3     1  UNL1       -0.2686
     29 C         140.2154  136.7995  155.4969 C.3     1  UNL1        0.0939
     30 C         140.4416  137.4996  156.8041 C.3     1  UNL1        0.1110
     31 N         141.7799  137.4184  157.4767 N.am    1  UNL1       -0.2732
     32 C         142.0061  138.1184  158.7838 C.2     1  UNL1        0.2491
     33 O         143.3444  138.0372  159.4564 O.2     1  UNL1       -0.2699
     34 C         142.8920  136.6371  156.8420 C.3     1  UNL1        0.1110
     35 C         142.6658  135.9370  155.5348 C.3     1  UNL1        0.0939
@<TRIPOS>BOND
     1    27    28    1
     2    28    29    1
     3    29    30    1
     4    30    31    1
     5    31    32   am
     6    32    33    2
     7    32    21    1
     8    21    22   ar
     9    22    23   ar
    10    23    24   ar
    11    24    25   ar
    12    25     1    1
    13     1     2   ar
    14     2     3   ar
    15     3     4   ar
    16     4     5   ar
    17     5     6   ar
    18     6     7   ar
    19     7     8   ar
    20     8    11    1
    21    11    12   ar
    22    12    13   ar
    23    13    14   ar
    24    14    15   ar
    25    15    16   ar
    26    16    17   ar
    27    17    18   ar
    28    18    19   ar
    29    19    20   ar
    30     8     9   ar
    31     9    10   ar
    32    25    26   ar
    33    31    34    1
    34    34    35    1
    35    35    28    1
    36    26    21   ar
    37    10     1   ar
    38    10     5   ar
    39    20    11   ar
    40    19    14   ar
@<TRIPOS>MOLECULE
*****
 35 40 0 0 0
SMALL
GASTEIGER

@<TRIPOS>ATOM
      1 C         140.6673  143.3140  159.2237 C.ar    1  UNL1        0.0844
      2 N         140.6759  144.1864  158.0036 N.ar    1  UNL1       -0.2240
      3 C         140.3430  145.6442  158.1217 C.ar    1  UNL1        0.1988
      4 N         140.0015  146.2296  159.4599 N.ar    1  UNL1       -0.2240
      5 C         139.9929  145.3571  160.6800 C.ar    1  UNL1        0.0845
      6 C         139.6515  145.9425  162.0182 C.ar    1  UNL1        0.0192
      7 C         139.6429  145.0701  163.2383 C.ar    1  UNL1        0.0016
      8 C         139.9758  143.6122  163.1203 C.ar    1  UNL1        0.0016
      9 C         140.3172  143.0268  161.7821 C.ar    1  UNL1        0.0030
     10 C         140.3258  143.8994  160.5619 C.ar    1  UNL1        0.0354
     11 C         139.9672  142.7397  164.3404 C.ar    1  UNL1        0.0192
     12 C         139.7117  141.2676  164.2080 C.ar    1  UNL1        0.0988
     13 N         139.7031  140.3951  165.4281 N.ar    1  UNL1       -0.2438
     14 C         139.9500  140.9948  166.7807 C.ar    1  UNL1        0.0813
     15 C         139.9414  140.1223  168.0008 C.ar    1  UNL1        0.0191
     16 C         140.1883  140.7220  169.3533 C.ar    1  UNL1        0.0015
     17 C         140.4438  142.1941  169.4858 C.ar    1  UNL1        0.0001
     18 C         140.4524  143.0665  168.2657 C.ar    1  UNL1        0.0015
     19 C         140.2055  142.4669  166.9131 C.ar    1  UNL1        0.0177
     20 C         140.2141  143.3394  165.6930 C.ar    1  UNL1        0.0030
     21 C         140.8969  139.4405  160.0566 C.ar    1  UNL1        0.0536
     22 C         141.6659  138.9404  158.8697 C.ar    1  UNL1        0.0045
     23 C         142.1019  139.8982  157.8008 C.ar    1  UNL1        0.0002
     24 C         141.7690  141.3561  157.9188 C.ar    1  UNL1        0.0015
     25 C         141.0001  141.8561  159.1057 C.ar    1  UNL1        0.0179
     26 C         140.5641  140.8983  160.1746 C.ar    1  UNL1        0.0060
     27 C         143.4981  138.1654  166.2901 C.3     1  UNL1        0.0897
     28 N         142.7388  138.2447  164.9990 N.3     1  UNL1       -0.2686
     29 C         143.1749  139.2025  163.9301 C.3     1  UNL1        0.0939
     30 C         142.4156  139.2819  162.6390 C.3     1  UNL1        0.1110
     31 N         141.2202  138.4034  162.4166 N.am    1  UNL1       -0.2732
     32 C         140.4609  138.4828  161.1255 C.2     1  UNL1        0.2491
     33 O         139.2654  137.6043  160.9032 O.2     1  UNL1       -0.2699
     34 C         140.7841  137.4456  163.4855 C.3     1  UNL1        0.1110
     35 C         141.5435  137.3663  164.7767 C.3     1  UNL1        0.0939
@<TRIPOS>BOND
     1    27    28    1
     2    28    29    1
     3    29    30    1
     4    30    31    1
     5    31    32   am
     6    32    33    2
     7    32    21    1
     8    21    22   ar
     9    22    23   ar
    10    23    24   ar
    11    24    25   ar
    12    25     1    1
    13     1     2   ar
    14     2     3   ar
    15     3     4   ar
    16     4     5   ar
    17     5     6   ar
    18     6     7   ar
    19     7     8   ar
    20     8    11    1
    21    11    12   ar
    22    12    13   ar
    23    13    14   ar
    24    14    15   ar
    25    15    16   ar
    26    16    17   ar
    27    17    18   ar
    28    18    19   ar
    29    19    20   ar
    30     8     9   ar
    31     9    10   ar
    32    25    26   ar
    33    31    34    1
    34    34    35    1
    35    35    28    1
    36    26    21   ar
    37    10     1   ar
    38    10     5   ar
    39    20    11   ar
    40    19    14   ar
@<TRIPOS>MOLECULE
*****
 35 40 0 0 0
SMALL
GASTEIGER

@<TRIPOS>ATOM
      1 C         142.1911  139.8646  158.4299 C.ar    1  UNL1        0.0844
      2 N         142.0704  141.3556  158.3192 N.ar    1  UNL1       -0.2240
      3 C         142.0007  142.0041  156.9684 C.ar    1  UNL1        0.1988
      4 N         142.0518  141.1616  155.7284 N.ar    1  UNL1       -0.2240
      5 C         142.1726  139.6706  155.8392 C.ar    1  UNL1        0.0845
      6 C         142.2237  138.8281  154.5992 C.ar    1  UNL1        0.0192
      7 C         142.3445  137.3371  154.7100 C.ar    1  UNL1        0.0016
      8 C         142.4142  136.6885  156.0608 C.ar    1  UNL1        0.0016
      9 C         142.3631  137.5310  157.3008 C.ar    1  UNL1        0.0030
     10 C         142.2423  139.0221  157.1900 C.ar    1  UNL1        0.0354
     11 C         142.5350  135.1975  156.1716 C.ar    1  UNL1        0.0192
     12 C         141.5439  134.3111  155.4772 C.ar    1  UNL1        0.0988
     13 N         141.6647  132.8201  155.5879 N.ar    1  UNL1       -0.2438
     14 C         142.7765  132.2155  156.3931 C.ar    1  UNL1        0.0813
     15 C         142.8973  130.7245  156.5038 C.ar    1  UNL1        0.0191
     16 C         144.0091  130.1198  157.3090 C.ar    1  UNL1        0.0015
     17 C         145.0002  131.0062  158.0033 C.ar    1  UNL1        0.0001
     18 C         144.8794  132.4972  157.8926 C.ar    1  UNL1        0.0015
     19 C         143.7676  133.1018  157.0874 C.ar    1  UNL1        0.0177
     20 C         143.6468  134.5929  156.9767 C.ar    1  UNL1        0.0030
     21 C         141.0886  138.4273  161.9610 C.ar    1  UNL1        0.0536
     22 C         142.4001  137.9190  162.4823 C.ar    1  UNL1        0.0045
     23 C         143.6419  138.0592  161.6527 C.ar    1  UNL1        0.0002
     24 C         143.5723  138.7077  160.3019 C.ar    1  UNL1        0.0015
     25 C         142.2608  139.2160  159.7807 C.ar    1  UNL1        0.0179
     26 C         141.0190  139.0758  160.6103 C.ar    1  UNL1        0.0060
     27 C         139.7789  140.2783  168.4501 C.3     1  UNL1        0.0897
     28 N         139.7958  139.7805  167.0352 N.3     1  UNL1       -0.2686
     29 C         141.0377  139.9208  166.2057 C.3     1  UNL1        0.0939
     30 C         141.0547  139.4230  164.7908 C.3     1  UNL1        0.1110
     31 N         139.8298  138.7849  164.2055 N.am    1  UNL1       -0.2732
     32 C         139.8467  138.2871  162.7906 C.2     1  UNL1        0.2491
     33 O         138.6218  137.6491  162.2052 O.2     1  UNL1       -0.2699
     34 C         138.5879  138.6447  165.0350 C.3     1  UNL1        0.1110
     35 C         138.5710  139.1425  166.4500 C.3     1  UNL1        0.0939
@<TRIPOS>BOND
     1    27    28    1
     2    28    29    1
     3    29    30    1
     4    30    31    1
     5    31    32   am
     6    32    33    2
     7    32    21    1
     8    21    22   ar
     9    22    23   ar
    10    23    24   ar
    11    24    25   ar
    12    25     1    1
    13     1     2   ar
    14     2     3   ar
    15     3     4   ar
    16     4     5   ar
    17     5     6   ar
    18     6     7   ar
    19     7     8   ar
    20     8    11    1
    21    11    12   ar
    22    12    13   ar
    23    13    14   ar
    24    14    15   ar
    25    15    16   ar
    26    16    17   ar
    27    17    18   ar
    28    18    19   ar
    29    19    20   ar
    30     8     9   ar
    31     9    10   ar
    32    25    26   ar
    33    31    34    1
    34    34    35    1
    35    35    28    1
    36    26    21   ar
    37    10     1   ar
    38    10     5   ar
    39    20    11   ar
    40    19    14   ar
