@<TRIPOS>MOLECULE
*****
 40 46 0 0 0
SMALL
GASTEIGER

@<TRIPOS>ATOM
      1 C         140.7659  141.1914  159.8727 C.3     1  UNL1        0.1558
      2 N         141.0969  140.1151  158.8818 N.3     1  UNL1       -0.2809
      3 C         142.4101  139.3953  158.9671 C.3     1  UNL1        0.1166
      4 C         143.3923  139.7517  160.0434 C.3     1  UNL1        0.0511
      5 C         143.0613  140.8280  161.0343 C.2     1  UNL1       -0.0037
      6 C         141.7481  141.5479  160.9489 C.2     1  UNL1        0.0784
      7 N         141.6998  142.5571  162.0576 N.2     1  UNL1       -0.2519
      8 C         142.9832  142.4609  162.8282 C.2     1  UNL1        0.0627
      9 C         143.4943  143.2084  164.0240 C.3     1  UNL1        0.0717
     10 C         144.8468  142.8872  164.5874 C.2     1  UNL1       -0.0198
     11 C         145.6882  141.8186  163.9549 C.2     1  UNL1       -0.0042
     12 C         145.1771  141.0711  162.7591 C.2     1  UNL1        0.0006
     13 C         143.8246  141.3923  162.1957 C.2     1  UNL1        0.0111
     14 H         141.0555  140.5434  157.9570 H       1  UNL1        0.1245
     15 C         140.0016  142.2747  160.5745 C.ar    1  UNL1        0.2023
     16 N         140.0449  143.7379  160.2477 N.ar    1  UNL1       -0.0586
     17 O         139.1298  144.4523  161.1977 O.2     1  UNL1       -0.3373
     18 C         138.5210  143.4305  162.1115 C.ar    1  UNL1        0.2369
     19 C         137.5447  143.7062  163.2165 C.3     1  UNL1        0.0978
     20 N         139.0598  142.0846  161.7264 N.ar    1  UNL1       -0.1928
     21 C         142.7412  138.3189  157.9762 C.ar    1  UNL1        0.1319
     22 N         142.3479  136.8750  158.0786 N.ar    1  UNL1       -0.2282
     23 C         142.8873  136.1612  156.8746 C.ar    1  UNL1        0.1171
     24 C         143.6140  137.1639  156.0282 C.ar    1  UNL1        0.0942
     25 N         143.5237  138.4974  156.7090 N.ar    1  UNL1       -0.3385
     26 H         143.9101  139.3417  156.3816 H       1  UNL1        0.1672
     27 C         142.7280  134.7009  156.5705 C.ar    1  UNL1        0.1006
     28 C         141.7657  134.2565  155.5092 C.ar    1  UNL1        0.0230
     29 C         141.6064  132.7964  155.2051 C.ar    1  UNL1        0.0328
     30 C         142.4094  131.7806  155.9623 C.ar    1  UNL1        0.1592
     31 F         142.2500  130.3204  155.6583 F       1  UNL1       -0.2025
     32 C         143.3716  132.2251  157.0237 C.ar    1  UNL1        0.1284
     33 N         143.5310  133.6852  157.3278 N.ar    1  UNL1       -0.2399
     34 N         137.8262  141.8771  157.4327 N.ar    1  UNL1       -0.2497
     35 C         139.1536  142.2513  158.0227 C.ar    1  UNL1        0.0944
     36 C         139.5183  141.2112  159.0402 C.ar    1  UNL1        0.0423
     37 C         138.4163  140.1943  159.0790 C.ar    1  UNL1        0.1194
     38 N         137.3705  140.6059  158.0855 N.ar    1  UNL1       -0.1679
     39 C         136.1511  141.9215  155.4473 C.3     1  UNL1        0.0284
     40 C         137.0847  142.6404  156.3755 C.3     1  UNL1        0.1276
@<TRIPOS>BOND
     1    39    40    1
     2    40    34    1
     3    34    35   ar
     4    35    36   ar
     5     1    36    1
     6     1    15    1
     7    15    16   ar
     8    16    17   ar
     9    17    18   ar
    10    18    19    1
    11    18    20   ar
    12     1     2    1
    13     2     3    1
    14     3    21    1
    15    21    22   ar
    16    22    23   ar
    17    23    27    1
    18    27    28   ar
    19    28    29   ar
    20    29    30   ar
    21    30    31    1
    22    30    32   ar
    23    32    33   ar
    24    23    24   ar
    25    24    25   ar
    26     3     4    1
    27     4     5    1
    28     5     6    2
    29     6     7    1
    30     7     8    2
    31     8     9    1
    32     9    10    1
    33    10    11    2
    34    11    12    1
    35    12    13    2
    36    36    37   ar
    37    37    38   ar
    38    38    34   ar
    39     6     1    1
    40    13     8    1
    41    20    15   ar
    42    25    21   ar
    43    13     5    1
    44    33    27   ar
    45     2    14    1
    46    25    26    1
@<TRIPOS>MOLECULE
*****
 40 46 0 0 0
SMALL
GASTEIGER

@<TRIPOS>ATOM
      1 C         141.5436  142.0049  161.7554 C.3     1  UNL1        0.1558
      2 N         141.7779  141.2530  160.4787 N.3     1  UNL1       -0.2809
      3 C         142.3544  139.8688  160.5186 C.3     1  UNL1        0.1166
      4 C         142.6966  139.2365  161.8351 C.3     1  UNL1        0.0511
      5 C         142.4623  139.9884  163.1117 C.2     1  UNL1       -0.0037
      6 C         141.8858  141.3726  163.0718 C.2     1  UNL1        0.0784
      7 N         141.7669  141.8659  164.4834 N.2     1  UNL1       -0.2519
      8 C         142.2699  140.7867  165.3956 C.2     1  UNL1        0.0627
      9 C         142.3921  140.7106  166.8887 C.3     1  UNL1        0.0717
     10 C         142.9441  139.4742  167.5339 C.2     1  UNL1       -0.0198
     11 C         143.3739  138.3138  166.6862 C.2     1  UNL1       -0.0042
     12 C         143.2517  138.3898  165.1931 C.2     1  UNL1        0.0006
     13 C         142.6997  139.6262  164.5478 C.2     1  UNL1        0.0111
     14 H         142.4116  141.8198  159.9153 H       1  UNL1        0.1245
     15 C         141.1420  143.1096  162.6872 C.ar    1  UNL1        0.2023
     16 N         141.9650  144.3153  163.0318 N.ar    1  UNL1       -0.0586
     17 O         141.1785  145.1534  163.9957 O.2     1  UNL1       -0.3373
     18 C         139.8694  144.4656  164.2468 C.ar    1  UNL1        0.2369
     19 C         138.7749  144.9550  165.1483 C.3     1  UNL1        0.0978
     20 N         139.8468  143.2024  163.4381 N.ar    1  UNL1       -0.1928
     21 C         142.5888  139.1169  159.2419 C.ar    1  UNL1        0.1319
     22 N         142.2585  137.6747  158.9949 N.ar    1  UNL1       -0.2282
     23 C         142.6601  137.3416  157.5886 C.ar    1  UNL1        0.1171
     24 C         143.2385  138.5779  156.9665 C.ar    1  UNL1        0.0942
     25 N         143.1944  139.6751  157.9884 N.ar    1  UNL1       -0.3385
     26 H         143.5079  140.5993  157.8590 H       1  UNL1        0.1672
     27 C         142.5097  136.0065  156.9214 C.ar    1  UNL1        0.1006
     28 C         141.5386  135.8384  155.7906 C.ar    1  UNL1        0.0230
     29 C         141.3882  134.5034  155.1235 C.ar    1  UNL1        0.0328
     30 C         142.2088  133.3365  155.5871 C.ar    1  UNL1        0.1592
     31 F         142.0583  132.0015  154.9200 F       1  UNL1       -0.2025
     32 C         143.1798  133.5047  156.7180 C.ar    1  UNL1        0.1284
     33 N         143.3303  134.8397  157.3851 N.ar    1  UNL1       -0.2399
     34 N         141.0308  144.7489  159.0585 N.ar    1  UNL1       -0.2497
     35 C         141.9280  143.8843  159.8939 C.ar    1  UNL1        0.0944
     36 C         141.0619  143.0209  160.7626 C.ar    1  UNL1        0.0423
     37 C         139.6296  143.3519  160.4641 C.ar    1  UNL1        0.1194
     38 N         139.6105  144.4199  159.4110 N.ar    1  UNL1       -0.1679
     39 C         140.5279  146.2268  156.9817 C.3     1  UNL1        0.0284
     40 C         141.4760  145.7643  158.0481 C.3     1  UNL1        0.1276
@<TRIPOS>BOND
     1    39    40    1
     2    40    34    1
     3    34    35   ar
     4    35    36   ar
     5     1    36    1
     6     1    15    1
     7    15    16   ar
     8    16    17   ar
     9    17    18   ar
    10    18    19    1
    11    18    20   ar
    12     1     2    1
    13     2     3    1
    14     3    21    1
    15    21    22   ar
    16    22    23   ar
    17    23    27    1
    18    27    28   ar
    19    28    29   ar
    20    29    30   ar
    21    30    31    1
    22    30    32   ar
    23    32    33   ar
    24    23    24   ar
    25    24    25   ar
    26     3     4    1
    27     4     5    1
    28     5     6    2
    29     6     7    1
    30     7     8    2
    31     8     9    1
    32     9    10    1
    33    10    11    2
    34    11    12    1
    35    12    13    2
    36    36    37   ar
    37    37    38   ar
    38    38    34   ar
    39     6     1    1
    40    13     8    1
    41    20    15   ar
    42    25    21   ar
    43    13     5    1
    44    33    27   ar
    45     2    14    1
    46    25    26    1
@<TRIPOS>MOLECULE
*****
 40 46 0 0 0
SMALL
GASTEIGER

@<TRIPOS>ATOM
      1 C         139.9874  141.7505  161.0791 C.3     1  UNL1        0.1558
      2 N         140.7193  141.1313  159.9254 N.3     1  UNL1       -0.2809
      3 C         141.0419  139.6665  159.9411 C.3     1  UNL1        0.1166
      4 C         140.6325  138.8208  161.1104 C.3     1  UNL1        0.0511
      5 C         139.9005  139.4400  162.2640 C.2     1  UNL1       -0.0037
      6 C         139.5780  140.9048  162.2484 C.2     1  UNL1        0.0784
      7 N         138.8516  141.2330  163.5191 N.2     1  UNL1       -0.2519
      8 C         138.7252  139.9711  164.3200 C.2     1  UNL1        0.0627
      9 C         138.1036  139.6879  165.6554 C.3     1  UNL1        0.0717
     10 C         138.1303  138.2966  166.2152 C.2     1  UNL1       -0.0198
     11 C         138.7786  137.1884  165.4395 C.2     1  UNL1       -0.0042
     12 C         139.4002  137.4715  164.1041 C.2     1  UNL1        0.0006
     13 C         139.3735  138.8629  163.5444 C.2     1  UNL1        0.0111
     14 H         141.6065  141.6273  159.8393 H       1  UNL1        0.1245
     15 C         139.3167  142.7885  161.9292 C.ar    1  UNL1        0.2023
     16 N         138.0163  143.4713  161.6253 N.ar    1  UNL1       -0.0586
     17 O         137.7247  144.4308  162.7409 O.2     1  UNL1       -0.3373
     18 C         138.8449  144.3408  163.7342 C.ar    1  UNL1        0.2369
     19 C         138.9609  145.1278  165.0060 C.3     1  UNL1        0.0978
     20 N         139.8289  143.3259  163.2326 N.ar    1  UNL1       -0.1928
     21 C         141.7738  139.0473  158.7874 C.ar    1  UNL1        0.1319
     22 N         141.6485  137.6261  158.3244 N.ar    1  UNL1       -0.2282
     23 C         142.5568  137.4410  157.1451 C.ar    1  UNL1        0.1171
     24 C         143.2434  138.7478  156.8793 C.ar    1  UNL1        0.0942
     25 N         142.7595  139.7406  157.8943 N.ar    1  UNL1       -0.3385
     26 H         143.0396  140.6819  157.9623 H       1  UNL1        0.1672
     27 C         142.7453  136.1718  156.3680 C.ar    1  UNL1        0.1006
     28 C         142.4060  136.1292  154.9076 C.ar    1  UNL1        0.0230
     29 C         142.5945  134.8601  154.1305 C.ar    1  UNL1        0.0328
     30 C         143.1224  133.6337  154.8139 C.ar    1  UNL1        0.1592
     31 F         143.3109  132.3645  154.0369 F       1  UNL1       -0.2025
     32 C         143.4617  133.6763  156.2744 C.ar    1  UNL1        0.1284
     33 N         143.2732  134.9454  157.0515 N.ar    1  UNL1       -0.2399
     34 N         140.0254  144.4848  158.3246 N.ar    1  UNL1       -0.2497
     35 C         139.6041  143.1348  158.8248 C.ar    1  UNL1        0.0944
     36 C         140.1638  142.9566  160.2051 C.ar    1  UNL1        0.0423
     37 C         140.9310  144.1964  160.5578 C.ar    1  UNL1        0.1194
     38 N         140.8454  145.1409  159.3956 N.ar    1  UNL1       -0.1679
     39 C         139.8845  146.5416  156.7436 C.3     1  UNL1        0.0284
     40 C         139.6862  145.0750  156.9879 C.3     1  UNL1        0.1276
@<TRIPOS>BOND
     1    39    40    1
     2    40    34    1
     3    34    35   ar
     4    35    36   ar
     5     1    36    1
     6     1    15    1
     7    15    16   ar
     8    16    17   ar
     9    17    18   ar
    10    18    19    1
    11    18    20   ar
    12     1     2    1
    13     2     3    1
    14     3    21    1
    15    21    22   ar
    16    22    23   ar
    17    23    27    1
    18    27    28   ar
    19    28    29   ar
    20    29    30   ar
    21    30    31    1
    22    30    32   ar
    23    32    33   ar
    24    23    24   ar
    25    24    25   ar
    26     3     4    1
    27     4     5    1
    28     5     6    2
    29     6     7    1
    30     7     8    2
    31     8     9    1
    32     9    10    1
    33    10    11    2
    34    11    12    1
    35    12    13    2
    36    36    37   ar
    37    37    38   ar
    38    38    34   ar
    39     6     1    1
    40    13     8    1
    41    20    15   ar
    42    25    21   ar
    43    13     5    1
    44    33    27   ar
    45     2    14    1
    46    25    26    1
@<TRIPOS>MOLECULE
*****
 40 46 0 0 0
SMALL
GASTEIGER

@<TRIPOS>ATOM
      1 C         141.4054  141.1013  160.0062 C.3     1  UNL1        0.1558
      2 N         140.8889  141.9681  158.8963 N.3     1  UNL1       -0.2809
      3 C         141.0464  143.4578  158.9729 C.3     1  UNL1        0.1166
      4 C         141.7203  144.0808  160.1593 C.3     1  UNL1        0.0511
      5 C         142.2368  143.2141  161.2693 C.2     1  UNL1       -0.0037
      6 C         142.0793  141.7244  161.1927 C.2     1  UNL1        0.0784
      7 N         142.6843  141.1302  162.4300 N.2     1  UNL1       -0.2519
      8 C         143.2157  142.2527  163.2713 C.2     1  UNL1        0.0627
      9 C         143.9156  142.2684  164.5978 C.3     1  UNL1        0.0717
     10 C         144.3390  143.5721  165.2070 C.2     1  UNL1       -0.0198
     11 C         144.0624  144.8601  164.4896 C.2     1  UNL1       -0.0042
     12 C         143.3624  144.8443  163.1630 C.2     1  UNL1        0.0006
     13 C         142.9391  143.5406  162.5539 C.2     1  UNL1        0.0111
     14 H         139.8893  141.7813  158.8177 H       1  UNL1        0.1245
     15 C         141.7266  139.8697  160.7999 C.ar    1  UNL1        0.2023
     16 N         143.0034  139.0854  160.7324 N.ar    1  UNL1       -0.0586
     17 O         142.8932  137.9371  161.6913 O.2     1  UNL1       -0.3373
     18 C         141.5484  138.0118  162.3513 C.ar    1  UNL1        0.2369
     19 C         141.0177  137.0592  163.3814 C.3     1  UNL1        0.0978
     20 N         140.8273  139.2062  161.8004 N.ar    1  UNL1       -0.1928
     21 C         140.5299  144.3247  157.8629 C.ar    1  UNL1        0.1319
     22 N         140.2373  145.7930  157.9543 N.ar    1  UNL1       -0.2282
     23 C         139.7419  146.2511  156.6146 C.ar    1  UNL1        0.1171
     24 C         139.7283  145.0659  155.6953 C.ar    1  UNL1        0.0942
     25 N         140.2154  143.8753  156.4668 N.ar    1  UNL1       -0.3385
     26 H         140.3117  142.9597  156.1180 H       1  UNL1        0.1672
     27 C         139.3320  147.6491  156.2570 C.ar    1  UNL1        0.1006
     28 C         139.6500  148.1996  154.8984 C.ar    1  UNL1        0.0230
     29 C         139.2402  149.5975  154.5409 C.ar    1  UNL1        0.0328
     30 C         138.5123  150.4448  155.5419 C.ar    1  UNL1        0.1592
     31 F         138.1024  151.8428  155.1843 F       1  UNL1       -0.2025
     32 C         138.1942  149.8943  156.9005 C.ar    1  UNL1        0.1284
     33 N         138.6041  148.4964  157.2581 N.ar    1  UNL1       -0.2399
     34 N         140.6672  138.2857  157.4387 N.ar    1  UNL1       -0.2497
     35 C         141.6283  139.1937  158.1472 C.ar    1  UNL1        0.0944
     36 C         140.8431  140.0506  159.0954 C.ar    1  UNL1        0.0423
     37 C         139.3967  139.6723  158.9729 C.ar    1  UNL1        0.1194
     38 N         139.2880  138.5815  157.9489 N.ar    1  UNL1       -0.1679
     39 C         142.1668  136.3208  156.6385 C.3     1  UNL1        0.0284
     40 C         141.0229  137.2617  156.4018 C.3     1  UNL1        0.1276
@<TRIPOS>BOND
     1    39    40    1
     2    40    34    1
     3    34    35   ar
     4    35    36   ar
     5     1    36    1
     6     1    15    1
     7    15    16   ar
     8    16    17   ar
     9    17    18   ar
    10    18    19    1
    11    18    20   ar
    12     1     2    1
    13     2     3    1
    14     3    21    1
    15    21    22   ar
    16    22    23   ar
    17    23    27    1
    18    27    28   ar
    19    28    29   ar
    20    29    30   ar
    21    30    31    1
    22    30    32   ar
    23    32    33   ar
    24    23    24   ar
    25    24    25   ar
    26     3     4    1
    27     4     5    1
    28     5     6    2
    29     6     7    1
    30     7     8    2
    31     8     9    1
    32     9    10    1
    33    10    11    2
    34    11    12    1
    35    12    13    2
    36    36    37   ar
    37    37    38   ar
    38    38    34   ar
    39     6     1    1
    40    13     8    1
    41    20    15   ar
    42    25    21   ar
    43    13     5    1
    44    33    27   ar
    45     2    14    1
    46    25    26    1
@<TRIPOS>MOLECULE
*****
 40 46 0 0 0
SMALL
GASTEIGER

@<TRIPOS>ATOM
      1 C         142.4365  142.6218  160.1585 C.3     1  UNL1        0.1558
      2 N         141.9004  143.2535  158.9081 N.3     1  UNL1       -0.2809
      3 C         140.7218  144.1785  158.9811 C.3     1  UNL1        0.1166
      4 C         140.0794  144.4719  160.3044 C.3     1  UNL1        0.0511
      5 C         140.6156  143.8402  161.5548 C.2     1  UNL1       -0.0037
      6 C         141.7941  142.9152  161.4819 C.2     1  UNL1        0.0784
      7 N         142.1000  142.4436  162.8726 N.2     1  UNL1       -0.2519
      8 C         141.1105  143.0772  163.8050 C.2     1  UNL1        0.0627
      9 C         140.9263  142.9796  165.2904 C.3     1  UNL1        0.0717
     10 C         139.8247  143.7453  165.9614 C.2     1  UNL1       -0.0198
     11 C         138.9073  144.6084  165.1470 C.2     1  UNL1       -0.0042
     12 C         139.0915  144.7060  163.6616 C.2     1  UNL1        0.0006
     13 C         140.1931  143.9404  162.9906 C.2     1  UNL1        0.0111
     14 H         141.6385  142.4917  158.2823 H       1  UNL1        0.1245
     15 C         143.2999  141.7877  161.0578 C.ar    1  UNL1        0.2023
     16 N         144.6691  142.1510  161.5509 N.ar    1  UNL1       -0.0586
     17 O         145.1610  141.0315  162.4198 O.2     1  UNL1       -0.3373
     18 C         144.0958  139.9764  162.4637 C.ar    1  UNL1        0.2369
     19 C         144.1681  138.6813  163.2170 C.3     1  UNL1        0.0978
     20 N         142.9455  140.4437  161.6219 N.ar    1  UNL1       -0.1928
     21 C         140.1856  144.8102  157.7306 C.ar    1  UNL1        0.1319
     22 N         140.3943  146.2324  157.3020 N.ar    1  UNL1       -0.2282
     23 C         139.6843  146.4318  155.9958 C.ar    1  UNL1        0.1171
     24 C         139.0367  145.1328  155.6172 C.ar    1  UNL1        0.0942
     25 N         139.3466  144.1306  156.6894 N.ar    1  UNL1       -0.3385
     26 H         139.0511  143.1917  156.7067 H       1  UNL1        0.1672
     27 C         139.6311  147.7064  155.2067 C.ar    1  UNL1        0.1006
     28 C         140.2794  147.7799  153.8561 C.ar    1  UNL1        0.0230
     29 C         140.2263  149.0545  153.0670 C.ar    1  UNL1        0.0328
     30 C         139.5249  150.2555  153.6286 C.ar    1  UNL1        0.1592
     31 F         139.4718  151.5301  152.8396 F       1  UNL1       -0.2025
     32 C         138.8766  150.1820  154.9793 C.ar    1  UNL1        0.1284
     33 N         138.9297  148.9075  155.7683 N.ar    1  UNL1       -0.2399
     34 N         145.1504  141.8132  157.5039 N.ar    1  UNL1       -0.2497
     35 C         144.4530  142.7831  158.4113 C.ar    1  UNL1        0.0944
     36 C         143.3788  142.0388  159.1475 C.ar    1  UNL1        0.0423
     37 C         143.4122  140.6089  158.6952 C.ar    1  UNL1        0.1194
     38 N         144.5071  140.4696  157.6794 N.ar    1  UNL1       -0.1679
     39 C         147.4935  142.8614  157.1027 C.3     1  UNL1        0.0284
     40 C         146.2908  142.1313  156.5828 C.3     1  UNL1        0.1276
@<TRIPOS>BOND
     1    39    40    1
     2    40    34    1
     3    34    35   ar
     4    35    36   ar
     5     1    36    1
     6     1    15    1
     7    15    16   ar
     8    16    17   ar
     9    17    18   ar
    10    18    19    1
    11    18    20   ar
    12     1     2    1
    13     2     3    1
    14     3    21    1
    15    21    22   ar
    16    22    23   ar
    17    23    27    1
    18    27    28   ar
    19    28    29   ar
    20    29    30   ar
    21    30    31    1
    22    30    32   ar
    23    32    33   ar
    24    23    24   ar
    25    24    25   ar
    26     3     4    1
    27     4     5    1
    28     5     6    2
    29     6     7    1
    30     7     8    2
    31     8     9    1
    32     9    10    1
    33    10    11    2
    34    11    12    1
    35    12    13    2
    36    36    37   ar
    37    37    38   ar
    38    38    34   ar
    39     6     1    1
    40    13     8    1
    41    20    15   ar
    42    25    21   ar
    43    13     5    1
    44    33    27   ar
    45     2    14    1
    46    25    26    1
@<TRIPOS>MOLECULE
*****
 40 46 0 0 0
SMALL
GASTEIGER

@<TRIPOS>ATOM
      1 C         142.5295  139.8185  159.6036 C.3     1  UNL1        0.1558
      2 N         143.2258  140.2834  158.3591 N.3     1  UNL1       -0.2809
      3 C         144.1199  141.4870  158.4051 C.3     1  UNL1        0.1166
      4 C         144.3177  142.2255  159.6956 C.3     1  UNL1        0.0511
      5 C         143.6214  141.7606  160.9401 C.2     1  UNL1       -0.0037
      6 C         142.7273  140.5570  160.8942 C.2     1  UNL1        0.0784
      7 N         142.1773  140.3354  162.2720 N.2     1  UNL1       -0.2519
      8 C         142.7315  141.4019  163.1695 C.2     1  UNL1        0.0627
      9 C         142.5387  141.6847  164.6299 C.3     1  UNL1        0.0717
     10 C         143.2384  142.8484  165.2671 C.2     1  UNL1       -0.0198
     11 C         144.1309  143.7293  164.4440 C.2     1  UNL1       -0.0042
     12 C         144.3237  143.4464  162.9836 C.2     1  UNL1        0.0006
     13 C         143.6240  142.2827  162.3463 C.2     1  UNL1        0.0111
     14 H         142.4988  140.4828  157.6719 H       1  UNL1        0.1245
     15 C         141.6596  138.9981  160.5093 C.ar    1  UNL1        0.2023
     16 N         142.0877  137.7870  161.2838 N.ar    1  UNL1       -0.0586
     17 O         140.9014  137.2852  162.0526 O.2     1  UNL1       -0.3373
     18 C         139.7402  138.1862  161.7532 C.ar    1  UNL1        0.2369
     19 C         138.3538  138.0521  162.3099 C.3     1  UNL1        0.0978
     20 N         140.2087  139.2448  160.7994 N.ar    1  UNL1       -0.1928
     21 C         144.8163  141.9520  157.1605 C.ar    1  UNL1        0.1319
     22 N         146.2875  141.8549  156.8848 N.ar    1  UNL1       -0.2282
     23 C         146.5441  142.4386  155.5271 C.ar    1  UNL1        0.1171
     24 C         145.2315  142.8965  154.9637 C.ar    1  UNL1        0.0942
     25 N         144.1636  142.5957  155.9732 N.ar    1  UNL1       -0.3385
     26 H         143.2031  142.7872  155.8739 H       1  UNL1        0.1672
     27 C         147.8791  142.5457  154.8514 C.ar    1  UNL1        0.1006
     28 C         148.0494  143.4489  153.6660 C.ar    1  UNL1        0.0230
     29 C         149.3843  143.5560  152.9903 C.ar    1  UNL1        0.0328
     30 C         150.5488  142.7598  153.5000 C.ar    1  UNL1        0.1592
     31 F         151.8838  142.8669  152.8243 F       1  UNL1       -0.2025
     32 C         150.3785  141.8566  154.6853 C.ar    1  UNL1        0.1284
     33 N         149.0437  141.7495  155.3610 N.ar    1  UNL1       -0.2399
     34 N         141.9183  136.8623  157.1638 N.ar    1  UNL1       -0.2497
     35 C         142.8006  137.6146  158.1155 C.ar    1  UNL1        0.0944
     36 C         142.0296  138.7950  158.6277 C.ar    1  UNL1        0.0423
     37 C         140.6709  138.7722  157.9925 C.ar    1  UNL1        0.1194
     38 N         140.6021  137.5777  157.0878 N.ar    1  UNL1       -0.1679
     39 C         143.6922  135.4200  155.9296 C.3     1  UNL1        0.0284
     40 C         142.2875  135.6138  156.4188 C.3     1  UNL1        0.1276
@<TRIPOS>BOND
     1    39    40    1
     2    40    34    1
     3    34    35   ar
     4    35    36   ar
     5     1    36    1
     6     1    15    1
     7    15    16   ar
     8    16    17   ar
     9    17    18   ar
    10    18    19    1
    11    18    20   ar
    12     1     2    1
    13     2     3    1
    14     3    21    1
    15    21    22   ar
    16    22    23   ar
    17    23    27    1
    18    27    28   ar
    19    28    29   ar
    20    29    30   ar
    21    30    31    1
    22    30    32   ar
    23    32    33   ar
    24    23    24   ar
    25    24    25   ar
    26     3     4    1
    27     4     5    1
    28     5     6    2
    29     6     7    1
    30     7     8    2
    31     8     9    1
    32     9    10    1
    33    10    11    2
    34    11    12    1
    35    12    13    2
    36    36    37   ar
    37    37    38   ar
    38    38    34   ar
    39     6     1    1
    40    13     8    1
    41    20    15   ar
    42    25    21   ar
    43    13     5    1
    44    33    27   ar
    45     2    14    1
    46    25    26    1
@<TRIPOS>MOLECULE
*****
 40 46 0 0 0
SMALL
GASTEIGER

@<TRIPOS>ATOM
      1 C         139.5535  140.9175  159.4090 C.3     1  UNL1        0.1558
      2 N         139.7997  139.5843  158.7673 N.3     1  UNL1       -0.2809
      3 C         140.3298  139.5130  157.3659 C.3     1  UNL1        0.1166
      4 C         140.6137  140.7749  156.6062 C.3     1  UNL1        0.0511
      5 C         140.3674  142.1081  157.2480 C.2     1  UNL1       -0.0037
      6 C         139.8373  142.1794  158.6493 C.2     1  UNL1        0.0784
      7 N         139.6942  143.6264  159.0176 N.2     1  UNL1       -0.2519
      8 C         140.1358  144.4494  157.8439 C.2     1  UNL1        0.0627
      9 C         140.2128  145.9320  157.6297 C.3     1  UNL1        0.0717
     10 C         140.7059  146.4762  156.3218 C.2     1  UNL1       -0.0198
     11 C         141.1220  145.5378  155.2281 C.2     1  UNL1       -0.0042
     12 C         141.0450  144.0552  155.4422 C.2     1  UNL1        0.0006
     13 C         140.5519  143.5110  156.7501 C.2     1  UNL1        0.0111
     14 H         138.9093  139.0868  158.7709 H       1  UNL1        0.1245
     15 C         139.1614  141.9353  160.4388 C.ar    1  UNL1        0.2023
     16 N         137.8249  142.6069  160.5504 N.ar    1  UNL1       -0.0586
     17 O         137.8745  143.5469  161.7183 O.2     1  UNL1       -0.3373
     18 C         139.2417  143.4561  162.3285 C.ar    1  UNL1        0.2369
     19 C         139.7282  144.2262  163.5203 C.3     1  UNL1        0.0978
     20 N         140.0371  142.4601  161.5377 N.ar    1  UNL1       -0.1928
     21 C         140.5761  138.1797  156.7241 C.ar    1  UNL1        0.1319
     22 N         141.6907  137.2330  157.0579 N.ar    1  UNL1       -0.2282
     23 C         141.5545  136.0273  156.1759 C.ar    1  UNL1        0.1171
     24 C         140.3558  136.2289  155.2971 C.ar    1  UNL1        0.0942
     25 N         139.7511  137.5591  155.6359 N.ar    1  UNL1       -0.3385
     26 H         138.9528  137.9554  155.2175 H       1  UNL1        0.1672
     27 C         142.4584  134.8302  156.1733 C.ar    1  UNL1        0.1006
     28 C         142.4787  133.9083  154.9902 C.ar    1  UNL1        0.0230
     29 C         143.3825  132.7112  154.9876 C.ar    1  UNL1        0.0328
     30 C         144.2661  132.4361  156.1680 C.ar    1  UNL1        0.1592
     31 F         145.1700  131.2390  156.1654 F       1  UNL1       -0.2025
     32 C         144.2459  133.3580  157.3511 C.ar    1  UNL1        0.1284
     33 N         143.3420  134.5550  157.3538 N.ar    1  UNL1       -0.2399
     34 N         139.2054  138.5170  162.4391 N.ar    1  UNL1       -0.2497
     35 C         140.0491  139.3228  161.4961 C.ar    1  UNL1        0.0944
     36 C         139.1335  140.0091  160.5263 C.ar    1  UNL1        0.0423
     37 C         137.7240  139.6275  160.8698 C.ar    1  UNL1        0.1194
     38 N         137.7686  138.7054  162.0521 N.ar    1  UNL1       -0.1679
     39 C         139.0209  137.7113  164.9022 C.3     1  UNL1        0.0284
     40 C         139.7102  137.6714  163.5706 C.3     1  UNL1        0.1276
@<TRIPOS>BOND
     1    39    40    1
     2    40    34    1
     3    34    35   ar
     4    35    36   ar
     5     1    36    1
     6     1    15    1
     7    15    16   ar
     8    16    17   ar
     9    17    18   ar
    10    18    19    1
    11    18    20   ar
    12     1     2    1
    13     2     3    1
    14     3    21    1
    15    21    22   ar
    16    22    23   ar
    17    23    27    1
    18    27    28   ar
    19    28    29   ar
    20    29    30   ar
    21    30    31    1
    22    30    32   ar
    23    32    33   ar
    24    23    24   ar
    25    24    25   ar
    26     3     4    1
    27     4     5    1
    28     5     6    2
    29     6     7    1
    30     7     8    2
    31     8     9    1
    32     9    10    1
    33    10    11    2
    34    11    12    1
    35    12    13    2
    36    36    37   ar
    37    37    38   ar
    38    38    34   ar
    39     6     1    1
    40    13     8    1
    41    20    15   ar
    42    25    21   ar
    43    13     5    1
    44    33    27   ar
    45     2    14    1
    46    25    26    1
@<TRIPOS>MOLECULE
*****
 40 46 0 0 0
SMALL
GASTEIGER

@<TRIPOS>ATOM
      1 C         141.6904  141.8047  160.4787 C.3     1  UNL1        0.1558
      2 N         141.3059  142.4810  159.1963 N.3     1  UNL1       -0.2809
      3 C         140.3711  143.6539  159.2179 C.3     1  UNL1        0.1166
      4 C         139.8208  144.1504  160.5219 C.3     1  UNL1        0.0511
      5 C         140.2052  143.4741  161.8044 C.2     1  UNL1       -0.0037
      6 C         141.1400  142.3013  161.7828 C.2     1  UNL1        0.0784
      7 N         141.3378  141.8401  163.1964 N.2     1  UNL1       -0.2519
      8 C         140.5252  142.7280  164.0916 C.2     1  UNL1        0.0627
      9 C         140.3323  142.7474  165.5790 C.3     1  UNL1        0.0717
     10 C         139.4393  143.7767  166.2061 C.2     1  UNL1       -0.0198
     11 C         138.7394  144.7865  165.3457 C.2     1  UNL1       -0.0042
     12 C         138.9323  144.7672  163.8583 C.2     1  UNL1        0.0006
     13 C         139.8252  143.7379  163.2313 C.2     1  UNL1        0.0111
     14 H         140.8729  141.7701  158.6068 H       1  UNL1        0.1245
     15 C         142.3449  140.8395  161.4222 C.ar    1  UNL1        0.2023
     16 N         141.8518  139.4634  161.7583 N.ar    1  UNL1       -0.0586
     17 O         142.8097  138.8545  162.7390 O.2     1  UNL1       -0.3373
     18 C         143.8947  139.8543  163.0090 C.ar    1  UNL1        0.2369
     19 C         145.0621  139.6612  163.9310 C.3     1  UNL1        0.0978
     20 N         143.6075  141.0812  162.1951 N.ar    1  UNL1       -0.1928
     21 C         139.9866  144.3303  157.9353 C.ar    1  UNL1        0.1319
     22 N         140.1017  145.7970  157.6433 N.ar    1  UNL1       -0.2282
     23 C         139.6058  146.0319  156.2472 C.ar    1  UNL1        0.1171
     24 C         139.1843  144.7103  155.6765 C.ar    1  UNL1        0.0942
     25 N         139.4197  143.6586  156.7199 N.ar    1  UNL1       -0.3385
     26 H         139.2345  142.6965  156.6237 H       1  UNL1        0.1672
     27 C         139.5425  147.3560  155.5451 C.ar    1  UNL1        0.1006
     28 C         140.2228  147.5357  154.2204 C.ar    1  UNL1        0.0230
     29 C         140.1595  148.8597  153.5183 C.ar    1  UNL1        0.0328
     30 C         139.4160  150.0040  154.1409 C.ar    1  UNL1        0.1592
     31 F         139.3527  151.3281  153.4388 F       1  UNL1       -0.2025
     32 C         138.7357  149.8242  155.4656 C.ar    1  UNL1        0.1284
     33 N         138.7989  148.5003  156.1677 N.ar    1  UNL1       -0.2399
     34 N         143.0442  139.3053  157.8357 N.ar    1  UNL1       -0.2497
     35 C         141.9208  139.8567  158.6629 C.ar    1  UNL1        0.0944
     36 C         142.4680  140.9729  159.5024 C.ar    1  UNL1        0.0423
     37 C         143.9295  141.1113  159.1940 C.ar    1  UNL1        0.1194
     38 N         144.2855  140.0806  158.1640 N.ar    1  UNL1       -0.1679
     39 C         142.6204  136.7921  157.3312 C.3     1  UNL1        0.0284
     40 C         142.9437  138.1766  156.8528 C.3     1  UNL1        0.1276
@<TRIPOS>BOND
     1    39    40    1
     2    40    34    1
     3    34    35   ar
     4    35    36   ar
     5     1    36    1
     6     1    15    1
     7    15    16   ar
     8    16    17   ar
     9    17    18   ar
    10    18    19    1
    11    18    20   ar
    12     1     2    1
    13     2     3    1
    14     3    21    1
    15    21    22   ar
    16    22    23   ar
    17    23    27    1
    18    27    28   ar
    19    28    29   ar
    20    29    30   ar
    21    30    31    1
    22    30    32   ar
    23    32    33   ar
    24    23    24   ar
    25    24    25   ar
    26     3     4    1
    27     4     5    1
    28     5     6    2
    29     6     7    1
    30     7     8    2
    31     8     9    1
    32     9    10    1
    33    10    11    2
    34    11    12    1
    35    12    13    2
    36    36    37   ar
    37    37    38   ar
    38    38    34   ar
    39     6     1    1
    40    13     8    1
    41    20    15   ar
    42    25    21   ar
    43    13     5    1
    44    33    27   ar
    45     2    14    1
    46    25    26    1
@<TRIPOS>MOLECULE
*****
 40 46 0 0 0
SMALL
GASTEIGER

@<TRIPOS>ATOM
      1 C         141.5617  141.9246  159.0196 C.3     1  UNL1        0.1558
      2 N         141.4488  140.6661  158.2115 N.3     1  UNL1       -0.2809
      3 C         142.1865  139.4318  158.6386 C.3     1  UNL1        0.1166
      4 C         143.0371  139.4562  159.8739 C.3     1  UNL1        0.0511
      5 C         143.1500  140.7148  160.6820 C.2     1  UNL1       -0.0037
      6 C         142.4123  141.9490  160.2549 C.2     1  UNL1        0.0784
      7 N         142.7134  143.0348  161.2450 N.2     1  UNL1       -0.2519
      8 C         143.6371  142.4717  162.2840 C.2     1  UNL1        0.0627
      9 C         144.2674  143.0793  163.5020 C.3     1  UNL1        0.0717
     10 C         145.1676  142.2531  164.3720 C.2     1  UNL1       -0.0198
     11 C         145.4374  140.8191  164.0240 C.2     1  UNL1       -0.0042
     12 C         144.8071  140.2115  162.8061 C.2     1  UNL1        0.0006
     13 C         143.9070  141.0378  161.9361 C.2     1  UNL1        0.0111
     14 H         141.7709  140.8907  157.2701 H       1  UNL1        0.1245
     15 C         141.3542  143.3463  159.4509 C.ar    1  UNL1        0.2023
     16 N         142.1680  144.5280  159.0138 N.ar    1  UNL1       -0.0586
     17 O         141.6131  145.7478  159.6878 O.2     1  UNL1       -0.3373
     18 C         140.4563  145.3199  160.5414 C.ar    1  UNL1        0.2369
     19 C         139.6084  146.2185  161.3921 C.3     1  UNL1        0.0978
     20 N         140.2963  143.8357  160.3950 N.ar    1  UNL1       -0.1928
     21 C         142.0736  138.1731  157.8304 C.ar    1  UNL1        0.1319
     22 N         142.9965  136.9930  157.9032 N.ar    1  UNL1       -0.2282
     23 C         142.5114  135.9641  156.9253 C.ar    1  UNL1        0.1171
     24 C         141.2886  136.5085  156.2482 C.ar    1  UNL1        0.0942
     25 N         141.0181  137.8738  156.8076 N.ar    1  UNL1       -0.3385
     26 H         140.2777  138.4689  156.5488 H       1  UNL1        0.1672
     27 C         143.1388  134.6259  156.6695 C.ar    1  UNL1        0.1006
     28 C         143.9304  133.9499  157.7496 C.ar    1  UNL1        0.0230
     29 C         144.5578  132.6117  157.4939 C.ar    1  UNL1        0.0328
     30 C         144.3938  131.9495  156.1581 C.ar    1  UNL1        0.1592
     31 F         145.0213  130.6112  155.9023 F       1  UNL1       -0.2025
     32 C         143.6023  132.6254  155.0780 C.ar    1  UNL1        0.1284
     33 N         142.9748  133.9636  155.3337 N.ar    1  UNL1       -0.2399
     34 N         138.6402  142.7976  156.6180 N.ar    1  UNL1       -0.2497
     35 C         139.1597  142.1541  157.8694 C.ar    1  UNL1        0.0944
     36 C         140.6390  142.3940  157.9341 C.ar    1  UNL1        0.0423
     37 C         141.0337  143.1858  156.7228 C.ar    1  UNL1        0.1194
     38 N         139.7983  143.4352  155.9093 N.ar    1  UNL1       -0.1679
     39 C         136.3925  141.5499  156.2424 C.3     1  UNL1        0.0284
     40 C         137.2130  142.8026  156.1563 C.3     1  UNL1        0.1276
@<TRIPOS>BOND
     1    39    40    1
     2    40    34    1
     3    34    35   ar
     4    35    36   ar
     5     1    36    1
     6     1    15    1
     7    15    16   ar
     8    16    17   ar
     9    17    18   ar
    10    18    19    1
    11    18    20   ar
    12     1     2    1
    13     2     3    1
    14     3    21    1
    15    21    22   ar
    16    22    23   ar
    17    23    27    1
    18    27    28   ar
    19    28    29   ar
    20    29    30   ar
    21    30    31    1
    22    30    32   ar
    23    32    33   ar
    24    23    24   ar
    25    24    25   ar
    26     3     4    1
    27     4     5    1
    28     5     6    2
    29     6     7    1
    30     7     8    2
    31     8     9    1
    32     9    10    1
    33    10    11    2
    34    11    12    1
    35    12    13    2
    36    36    37   ar
    37    37    38   ar
    38    38    34   ar
    39     6     1    1
    40    13     8    1
    41    20    15   ar
    42    25    21   ar
    43    13     5    1
    44    33    27   ar
    45     2    14    1
    46    25    26    1
