@<TRIPOS>MOLECULE
*****
 23 24 0 0 0
SMALL
GASTEIGER

@<TRIPOS>ATOM
      1 C         138.7322  143.2312  161.9639 C.2     1  UNL1        0.2252
      2 O         137.6890  142.8820  160.9442 O.2     1  UNL1       -0.2749
      3 N         138.8633  142.4119  163.2136 N.am    1  UNL1       -0.2714
      4 C         138.0271  141.2216  163.5793 C.3     1  UNL1        0.1202
      5 C         138.5006  140.7132  164.9087 C.ar    1  UNL1       -0.0047
      6 C         138.0497  139.5657  165.7630 C.ar    1  UNL1       -0.0029
      7 C         138.7277  139.2943  167.0732 C.ar    1  UNL1       -0.0003
      8 C         139.8566  140.1705  167.5291 C.ar    1  UNL1       -0.0001
      9 C         140.3075  141.3181  166.6749 C.ar    1  UNL1       -0.0029
     10 C         139.6295  141.5894  165.3647 C.ar    1  UNL1       -0.0047
     11 C         139.8537  142.6393  164.3170 C.3     1  UNL1        0.1202
     12 C         140.4926  143.5587  160.8266 C.3     1  UNL1        0.0091
     13 C         139.6443  144.3995  161.7339 C.3     1  UNL1        0.0691
     14 C         138.7960  145.2404  162.6412 C.3     1  UNL1        0.0091
     15 C         140.5564  145.5680  161.5039 C.3     1  UNL1        0.0091
     16 C         140.5346  139.8991  168.8394 C.2     1  UNL1        0.0047
     17 C         141.6539  140.7840  169.3021 C.2     1  UNL1        0.0598
     18 C         142.3319  140.5126  170.6124 C.2     1  UNL1        0.2679
     19 O         141.8739  141.2184  171.8542 O.2     1  UNL1       -0.2681
     20 N         143.4679  139.5354  170.6808 N.am    1  UNL1       -0.1934
     21 O         144.1458  139.2641  171.9910 O.3     1  UNL1       -0.2949
     22 H         143.7685  139.0722  169.8658 H       1  UNL1        0.1825
     23 H         143.7308  139.7980  172.6865 H       1  UNL1        0.2414
@<TRIPOS>BOND
     1    12    13    1
     2    13    14    1
     3    13    15    1
     4    13     1    1
     5     1     2    2
     6     1     3   am
     7     3     4    1
     8     4     5    1
     9     5     6   ar
    10     6     7   ar
    11     7     8   ar
    12     8    16    1
    13    16    17    2
    14    17    18    1
    15    18    19    2
    16    18    20   am
    17    20    21    1
    18     8     9   ar
    19     9    10   ar
    20    10    11    1
    21    11     3    1
    22    10     5   ar
    23    20    22    1
    24    21    23    1
@<TRIPOS>MOLECULE
*****
 23 24 0 0 0
SMALL
GASTEIGER

@<TRIPOS>ATOM
      1 C         140.2624  138.5122  161.6518 C.2     1  UNL1        0.2252
      2 O         139.2457  137.7260  160.8784 O.2     1  UNL1       -0.2749
      3 N         140.0257  138.8253  163.0995 N.am    1  UNL1       -0.2714
      4 C         138.8261  138.4211  163.9042 C.3     1  UNL1        0.1202
      5 C         139.0059  138.9436  165.2988 C.ar    1  UNL1       -0.0047
      6 C         138.1455  138.8512  166.5239 C.ar    1  UNL1       -0.0029
      7 C         138.5958  139.4859  167.8062 C.ar    1  UNL1       -0.0003
      8 C         139.9065  140.2130  167.8634 C.ar    1  UNL1       -0.0001
      9 C         140.7669  140.3054  166.6382 C.ar    1  UNL1       -0.0029
     10 C         140.3166  139.6707  165.3559 C.ar    1  UNL1       -0.0047
     11 C         140.9469  139.5976  163.9967 C.3     1  UNL1        0.1202
     12 C         142.2222  137.7361  161.4138 C.3     1  UNL1        0.0091
     13 C         141.5159  138.9854  160.9774 C.3     1  UNL1        0.0691
     14 C         140.8097  140.2346  160.5410 C.3     1  UNL1        0.0091
     15 C         142.7695  139.4585  160.3030 C.3     1  UNL1        0.0091
     16 C         140.3568  140.8477  169.1458 C.2     1  UNL1        0.0047
     17 C         141.4359  141.8893  169.1286 C.2     1  UNL1        0.0598
     18 C         141.8862  142.5241  170.4109 C.2     1  UNL1        0.2679
     19 O         141.1580  142.2308  171.6891 O.2     1  UNL1       -0.2681
     20 N         143.0647  143.4520  170.4152 N.am    1  UNL1       -0.1934
     21 O         143.5150  144.0866  171.6975 O.3     1  UNL1       -0.2949
     22 H         143.5427  143.6445  169.5763 H       1  UNL1        0.1825
     23 H         142.9408  143.7936  172.4223 H       1  UNL1        0.2414
@<TRIPOS>BOND
     1    12    13    1
     2    13    14    1
     3    13    15    1
     4    13     1    1
     5     1     2    2
     6     1     3   am
     7     3     4    1
     8     4     5    1
     9     5     6   ar
    10     6     7   ar
    11     7     8   ar
    12     8    16    1
    13    16    17    2
    14    17    18    1
    15    18    19    2
    16    18    20   am
    17    20    21    1
    18     8     9   ar
    19     9    10   ar
    20    10    11    1
    21    11     3    1
    22    10     5   ar
    23    20    22    1
    24    21    23    1
@<TRIPOS>MOLECULE
*****
 23 24 0 0 0
SMALL
GASTEIGER

@<TRIPOS>ATOM
      1 C         139.8781  141.1989  169.4770 C.2     1  UNL1        0.2252
      2 O         138.6575  141.1053  170.3437 O.2     1  UNL1       -0.2749
      3 N         139.9356  140.4493  168.1790 N.am    1  UNL1       -0.2714
      4 C         138.8559  139.5712  167.6194 C.3     1  UNL1        0.1202
      5 C         139.3358  139.0254  166.3072 C.ar    1  UNL1       -0.0047
      6 C         138.6974  138.1058  165.3088 C.ar    1  UNL1       -0.0029
      7 C         139.4353  137.7271  164.0591 C.ar    1  UNL1       -0.0003
      8 C         140.8117  138.2679  163.8077 C.ar    1  UNL1       -0.0001
      9 C         141.4501  139.1875  164.8061 C.ar    1  UNL1       -0.0029
     10 C         140.7122  139.5662  166.0558 C.ar    1  UNL1       -0.0047
     11 C         141.0828  140.4462  167.2126 C.3     1  UNL1        0.1202
     12 C         140.4496  143.2224  169.1967 C.3     1  UNL1        0.0091
     13 C         141.0413  142.0420  169.9083 C.3     1  UNL1        0.0691
     14 C         141.6331  140.8616  170.6199 C.3     1  UNL1        0.0091
     15 C         142.2046  142.8852  170.3396 C.3     1  UNL1        0.0091
     16 C         141.5496  137.8892  162.5578 C.2     1  UNL1        0.0047
     17 C         142.2789  138.9372  161.7707 C.2     1  UNL1        0.0598
     18 C         143.0169  138.5584  160.5208 C.2     1  UNL1        0.2679
     19 O         144.5017  138.7542  160.4381 O.2     1  UNL1       -0.2681
     20 N         142.2699  137.9839  159.3538 N.am    1  UNL1       -0.1934
     21 O         143.0079  137.6052  158.1040 O.3     1  UNL1       -0.2949
     22 H         141.2954  137.8554  159.4081 H       1  UNL1        0.1825
     23 H         143.9525  137.7947  158.2163 H       1  UNL1        0.2414
@<TRIPOS>BOND
     1    12    13    1
     2    13    14    1
     3    13    15    1
     4    13     1    1
     5     1     2    2
     6     1     3   am
     7     3     4    1
     8     4     5    1
     9     5     6   ar
    10     6     7   ar
    11     7     8   ar
    12     8    16    1
    13    16    17    2
    14    17    18    1
    15    18    19    2
    16    18    20   am
    17    20    21    1
    18     8     9   ar
    19     9    10   ar
    20    10    11    1
    21    11     3    1
    22    10     5   ar
    23    20    22    1
    24    21    23    1
@<TRIPOS>MOLECULE
*****
 23 24 0 0 0
SMALL
GASTEIGER

@<TRIPOS>ATOM
      1 C         142.3151  142.2104  163.8947 C.2     1  UNL1        0.2252
      2 O         142.2409  142.0275  162.4078 O.2     1  UNL1       -0.2749
      3 N         141.3308  141.5130  164.7863 N.am    1  UNL1       -0.2714
      4 C         140.2232  140.6064  164.3377 C.3     1  UNL1        0.1202
      5 C         139.4892  140.1328  165.5571 C.ar    1  UNL1       -0.0047
      6 C         138.3099  139.2218  165.7280 C.ar    1  UNL1       -0.0029
      7 C         137.7845  138.9248  167.1012 C.ar    1  UNL1       -0.0003
      8 C         138.4384  139.5387  168.3035 C.ar    1  UNL1       -0.0001
      9 C         139.6178  140.4497  168.1325 C.ar    1  UNL1       -0.0029
     10 C         140.1432  140.7467  166.7593 C.ar    1  UNL1       -0.0047
     11 C         141.2813  141.5997  166.2829 C.3     1  UNL1        0.1202
     12 C         144.2432  141.8903  164.7192 C.3     1  UNL1        0.0091
     13 C         143.3735  143.0908  164.4901 C.3     1  UNL1        0.0691
     14 C         142.5039  144.2913  164.2610 C.3     1  UNL1        0.0091
     15 C         144.4320  143.9713  165.0855 C.3     1  UNL1        0.0091
     16 C         137.9130  139.2417  169.6767 C.2     1  UNL1        0.0047
     17 C         136.7089  138.3632  169.8452 C.2     1  UNL1        0.0598
     18 C         136.1835  138.0661  171.2185 C.2     1  UNL1        0.2679
     19 O         136.4313  136.7248  171.8424 O.2     1  UNL1       -0.2681
     20 N         135.4102  139.1104  171.9677 N.am    1  UNL1       -0.1934
     21 O         134.8848  138.8134  173.3409 O.3     1  UNL1       -0.2949
     22 H         135.2475  139.9908  171.5583 H       1  UNL1        0.1825
     23 H         135.1310  137.9095  173.5928 H       1  UNL1        0.2414
@<TRIPOS>BOND
     1    12    13    1
     2    13    14    1
     3    13    15    1
     4    13     1    1
     5     1     2    2
     6     1     3   am
     7     3     4    1
     8     4     5    1
     9     5     6   ar
    10     6     7   ar
    11     7     8   ar
    12     8    16    1
    13    16    17    2
    14    17    18    1
    15    18    19    2
    16    18    20   am
    17    20    21    1
    18     8     9   ar
    19     9    10   ar
    20    10    11    1
    21    11     3    1
    22    10     5   ar
    23    20    22    1
    24    21    23    1
@<TRIPOS>MOLECULE
*****
 23 24 0 0 0
SMALL
GASTEIGER

@<TRIPOS>ATOM
      1 C         140.5019  140.6807  169.5708 C.2     1  UNL1        0.2252
      2 O         139.9237  139.4912  170.2783 O.2     1  UNL1       -0.2749
      3 N         140.1721  140.9290  168.1287 N.am    1  UNL1       -0.2714
      4 C         139.2842  140.0796  167.2684 C.3     1  UNL1        0.1202
      5 C         139.2357  140.6959  165.9017 C.ar    1  UNL1       -0.0047
      6 C         138.5212  140.2957  164.6450 C.ar    1  UNL1       -0.0029
      7 C         138.6646  141.1258  163.4039 C.ar    1  UNL1       -0.0003
      8 C         139.5226  142.3561  163.4195 C.ar    1  UNL1       -0.0001
      9 C         140.2372  142.7562  164.6762 C.ar    1  UNL1       -0.0029
     10 C         140.0937  141.9261  165.9173 C.ar    1  UNL1       -0.0047
     11 C         140.6724  142.0702  167.2936 C.3     1  UNL1        0.1202
     12 C         142.5870  140.7624  169.9518 C.3     1  UNL1        0.0091
     13 C         141.4098  141.6220  170.3053 C.3     1  UNL1        0.0691
     14 C         140.2325  142.4816  170.6589 C.3     1  UNL1        0.0091
     15 C         142.3177  142.5634  171.0399 C.3     1  UNL1        0.0091
     16 C         139.6661  143.1862  162.1784 C.2     1  UNL1        0.0047
     17 C         140.4164  144.4841  162.2267 C.2     1  UNL1        0.0598
     18 C         140.5599  145.3142  160.9856 C.2     1  UNL1        0.2679
     19 O         139.4623  146.2528  160.5801 O.2     1  UNL1       -0.2681
     20 N         141.8008  145.2058  160.1500 N.am    1  UNL1       -0.1934
     21 O         141.9442  146.0359  158.9089 O.3     1  UNL1       -0.2949
     22 H         142.5212  144.5897  160.4161 H       1  UNL1        0.1825
     23 H         141.1520  146.5834  158.7928 H       1  UNL1        0.2414
@<TRIPOS>BOND
     1    12    13    1
     2    13    14    1
     3    13    15    1
     4    13     1    1
     5     1     2    2
     6     1     3   am
     7     3     4    1
     8     4     5    1
     9     5     6   ar
    10     6     7   ar
    11     7     8   ar
    12     8    16    1
    13    16    17    2
    14    17    18    1
    15    18    19    2
    16    18    20   am
    17    20    21    1
    18     8     9   ar
    19     9    10   ar
    20    10    11    1
    21    11     3    1
    22    10     5   ar
    23    20    22    1
    24    21    23    1
@<TRIPOS>MOLECULE
*****
 23 24 0 0 0
SMALL
GASTEIGER

@<TRIPOS>ATOM
      1 C         140.9481  141.2046  169.9811 C.2     1  UNL1        0.2252
      2 O         140.1724  140.8158  171.2047 O.2     1  UNL1       -0.2749
      3 N         140.4819  140.7625  168.6257 N.am    1  UNL1       -0.2714
      4 C         139.2655  139.9330  168.3388 C.3     1  UNL1        0.1202
      5 C         139.1821  139.7301  166.8550 C.ar    1  UNL1       -0.0047
      6 C         138.1960  138.9952  165.9963 C.ar    1  UNL1       -0.0029
      7 C         138.3747  138.9644  164.5073 C.ar    1  UNL1       -0.0003
      8 C         139.5396  139.6685  163.8770 C.ar    1  UNL1       -0.0001
      9 C         140.5257  140.4035  164.7357 C.ar    1  UNL1       -0.0029
     10 C         140.3470  140.4342  166.2247 C.ar    1  UNL1       -0.0047
     11 C         141.1503  141.0723  167.3190 C.3     1  UNL1        0.1202
     12 C         143.0113  140.7871  170.2433 C.3     1  UNL1        0.0091
     13 C         142.1900  142.0354  170.1130 C.3     1  UNL1        0.0691
     14 C         141.3686  143.2837  169.9828 C.3     1  UNL1        0.0091
     15 C         143.4319  142.8663  170.2449 C.3     1  UNL1        0.0091
     16 C         139.7183  139.6377  162.3880 C.2     1  UNL1        0.0047
     17 C         138.5426  139.3660  161.4970 C.2     1  UNL1        0.0598
     18 C         138.7213  139.3352  160.0079 C.2     1  UNL1        0.2679
     19 O         139.8434  138.5443  159.4034 O.2     1  UNL1       -0.2681
     20 N         137.7780  140.0952  159.1235 N.am    1  UNL1       -0.1934
     21 O         137.9567  140.0644  157.6345 O.3     1  UNL1       -0.2949
     22 H         137.0415  140.6143  159.5202 H       1  UNL1        0.1825
     23 H         138.7223  139.5118  157.4121 H       1  UNL1        0.2414
@<TRIPOS>BOND
     1    12    13    1
     2    13    14    1
     3    13    15    1
     4    13     1    1
     5     1     2    2
     6     1     3   am
     7     3     4    1
     8     4     5    1
     9     5     6   ar
    10     6     7   ar
    11     7     8   ar
    12     8    16    1
    13    16    17    2
    14    17    18    1
    15    18    19    2
    16    18    20   am
    17    20    21    1
    18     8     9   ar
    19     9    10   ar
    20    10    11    1
    21    11     3    1
    22    10     5   ar
    23    20    22    1
    24    21    23    1
@<TRIPOS>MOLECULE
*****
 23 24 0 0 0
SMALL
GASTEIGER

@<TRIPOS>ATOM
      1 C         141.9354  141.4625  168.8650 C.2     1  UNL1        0.2252
      2 O         143.1267  141.0331  169.6690 O.2     1  UNL1       -0.2749
      3 N         142.1283  142.1093  167.5254 N.am    1  UNL1       -0.2714
      4 C         143.4446  142.3903  166.8634 C.3     1  UNL1        0.1202
      5 C         143.1686  143.0433  165.5414 C.ar    1  UNL1       -0.0047
      6 C         144.0790  143.5421  164.4588 C.ar    1  UNL1       -0.0029
      7 C         143.5026  144.1634  163.2212 C.ar    1  UNL1       -0.0003
      8 C         142.0156  144.2859  163.0663 C.ar    1  UNL1       -0.0001
      9 C         141.1052  143.7871  164.1489 C.ar    1  UNL1       -0.0029
     10 C         141.6816  143.1657  165.3865 C.ar    1  UNL1       -0.0047
     11 C         141.0387  142.5885  166.6127 C.3     1  UNL1        0.1202
     12 C         140.5763  142.6113  170.0196 C.3     1  UNL1        0.0091
     13 C         140.5513  141.2452  169.4006 C.3     1  UNL1        0.0691
     14 C         140.5263  139.8791  168.7817 C.3     1  UNL1        0.0091
     15 C         139.1671  141.0278  169.9363 C.3     1  UNL1        0.0091
     16 C         141.4392  144.9073  161.8286 C.2     1  UNL1        0.0047
     17 C         141.7465  144.3215  160.4824 C.2     1  UNL1        0.0598
     18 C         141.1701  144.9428  159.2448 C.2     1  UNL1        0.2679
     19 O         139.7319  144.7092  158.8883 O.2     1  UNL1       -0.2681
     20 N         142.0318  145.7977  158.3636 N.am    1  UNL1       -0.1934
     21 O         141.4554  146.4190  157.1260 O.3     1  UNL1       -0.2949
     22 H         142.9757  145.9511  158.5975 H       1  UNL1        0.1825
     23 H         140.5215  146.1698  157.0440 H       1  UNL1        0.2414
@<TRIPOS>BOND
     1    12    13    1
     2    13    14    1
     3    13    15    1
     4    13     1    1
     5     1     2    2
     6     1     3   am
     7     3     4    1
     8     4     5    1
     9     5     6   ar
    10     6     7   ar
    11     7     8   ar
    12     8    16    1
    13    16    17    2
    14    17    18    1
    15    18    19    2
    16    18    20   am
    17    20    21    1
    18     8     9   ar
    19     9    10   ar
    20    10    11    1
    21    11     3    1
    22    10     5   ar
    23    20    22    1
    24    21    23    1
@<TRIPOS>MOLECULE
*****
 23 24 0 0 0
SMALL
GASTEIGER

@<TRIPOS>ATOM
      1 C         142.4814  139.6707  169.3004 C.2     1  UNL1        0.2252
      2 O         142.9225  138.3407  169.8357 O.2     1  UNL1       -0.2749
      3 N         142.5394  139.9425  167.8264 N.am    1  UNL1       -0.2714
      4 C         143.0126  138.9868  166.7716 C.3     1  UNL1        0.1202
      5 C         142.9000  139.6714  165.4416 C.ar    1  UNL1       -0.0047
      6 C         143.2216  139.2174  164.0487 C.ar    1  UNL1       -0.0029
      7 C         143.0004  140.1422  162.8886 C.ar    1  UNL1       -0.0003
      8 C         142.4576  141.5210  163.1215 C.ar    1  UNL1       -0.0001
      9 C         142.1360  141.9750  164.5145 C.ar    1  UNL1       -0.0029
     10 C         142.3572  141.0502  165.6746 C.ar    1  UNL1       -0.0047
     11 C         142.1344  141.2178  167.1484 C.3     1  UNL1        0.1202
     12 C         140.6356  140.0690  170.2670 C.3     1  UNL1        0.0091
     13 C         141.9824  140.7288  170.2392 C.3     1  UNL1        0.0691
     14 C         143.3291  141.3887  170.2113 C.3     1  UNL1        0.0091
     15 C         141.4834  141.7871  171.1779 C.3     1  UNL1        0.0091
     16 C         142.2364  142.4459  161.9614 C.2     1  UNL1        0.0047
     17 C         141.0842  143.4061  161.9768 C.2     1  UNL1        0.0598
     18 C         140.8630  144.3310  160.8167 C.2     1  UNL1        0.2679
     19 O         139.4824  144.5213  160.2619 O.2     1  UNL1       -0.2681
     20 N         142.0224  145.0654  160.2113 N.am    1  UNL1       -0.1934
     21 O         141.8012  145.9901  159.0513 O.3     1  UNL1       -0.2949
     22 H         142.9285  144.9404  160.5754 H       1  UNL1        0.1825
     23 H         140.8594  145.9979  158.8190 H       1  UNL1        0.2414
@<TRIPOS>BOND
     1    12    13    1
     2    13    14    1
     3    13    15    1
     4    13     1    1
     5     1     2    2
     6     1     3   am
     7     3     4    1
     8     4     5    1
     9     5     6   ar
    10     6     7   ar
    11     7     8   ar
    12     8    16    1
    13    16    17    2
    14    17    18    1
    15    18    19    2
    16    18    20   am
    17    20    21    1
    18     8     9   ar
    19     9    10   ar
    20    10    11    1
    21    11     3    1
    22    10     5   ar
    23    20    22    1
    24    21    23    1
@<TRIPOS>MOLECULE
*****
 23 24 0 0 0
SMALL
GASTEIGER

@<TRIPOS>ATOM
      1 C         141.6552  140.3923  160.1552 C.2     1  UNL1        0.2252
      2 O         141.4548  139.5614  158.9226 O.2     1  UNL1       -0.2749
      3 N         141.0270  139.9744  161.4516 N.am    1  UNL1       -0.2714
      4 C         140.1773  138.7573  161.6678 C.3     1  UNL1        0.1202
      5 C         139.7634  138.7309  163.1093 C.ar    1  UNL1       -0.0047
      6 C         138.9225  137.7687  163.8947 C.ar    1  UNL1       -0.0029
      7 C         138.6755  138.0071  165.3548 C.ar    1  UNL1       -0.0003
      8 C         139.2695  139.2079  166.0296 C.ar    1  UNL1       -0.0001
      9 C         140.1105  140.1702  165.2443 C.ar    1  UNL1       -0.0029
     10 C         140.3574  139.9317  163.7841 C.ar    1  UNL1       -0.0047
     11 C         141.1383  140.7001  162.7596 C.3     1  UNL1        0.1202
     12 C         143.7088  140.8457  160.4323 C.3     1  UNL1        0.0091
     13 C         142.4836  141.6411  160.0913 C.3     1  UNL1        0.0691
     14 C         141.2584  142.4364  159.7503 C.3     1  UNL1        0.0091
     15 C         143.3121  142.8900  160.0275 C.3     1  UNL1        0.0091
     16 C         139.0225  139.4463  167.4899 C.2     1  UNL1        0.0047
     17 C         139.9428  140.3371  168.2705 C.2     1  UNL1        0.0598
     18 C         139.6958  140.5756  169.7308 C.2     1  UNL1        0.2679
     19 O         138.4429  140.0589  170.3736 O.2     1  UNL1       -0.2681
     20 N         140.7017  141.3307  170.5480 N.am    1  UNL1       -0.1934
     21 O         140.4546  141.5691  172.0082 O.3     1  UNL1       -0.2949
     22 H         141.5240  141.6698  170.1261 H       1  UNL1        0.1825
     23 H         139.6063  141.1728  172.2615 H       1  UNL1        0.2414
@<TRIPOS>BOND
     1    12    13    1
     2    13    14    1
     3    13    15    1
     4    13     1    1
     5     1     2    2
     6     1     3   am
     7     3     4    1
     8     4     5    1
     9     5     6   ar
    10     6     7   ar
    11     7     8   ar
    12     8    16    1
    13    16    17    2
    14    17    18    1
    15    18    19    2
    16    18    20   am
    17    20    21    1
    18     8     9   ar
    19     9    10   ar
    20    10    11    1
    21    11     3    1
    22    10     5   ar
    23    20    22    1
    24    21    23    1
