@<TRIPOS>MOLECULE
*****
 30 31 0 0 0
SMALL
GASTEIGER

@<TRIPOS>ATOM
      1 C         137.6913  142.7663  162.4790 C.3     1  UNL1        0.1700
      2 O         137.9624  142.9999  161.0224 O.3     1  UNL1       -0.3793
      3 H         138.0196  143.9533  160.8530 H       1  UNL1        0.2106
      4 C         137.5540  143.9321  163.4127 C.3     1  UNL1        0.1056
      5 C         138.8970  144.9157  165.4074 C.3     1  UNL1        0.0897
      6 N         138.7788  144.6173  163.9422 N.3     1  UNL1       -0.2690
      7 C         139.8854  145.0042  163.0063 C.3     1  UNL1        0.0769
      8 C         141.2212  145.4127  163.5527 C.3     1  UNL1        0.0437
      9 C         142.3450  144.4205  163.6063 C.ar    1  UNL1       -0.0199
     10 C         143.4131  144.4394  162.5534 C.ar    1  UNL1       -0.0033
     11 C         144.5367  143.4472  162.6070 C.ar    1  UNL1        0.0119
     12 C         144.5922  142.4360  163.7136 C.ar    1  UNL1        0.0682
     13 CL        145.7159  141.4438  163.7672 Cl      1  UNL1       -0.0814
     14 C         143.5241  142.4171  164.7665 C.ar    1  UNL1        0.0679
     15 CL        143.5795  141.4059  165.8730 Cl      1  UNL1       -0.0814
     16 C         142.4004  143.4093  164.7128 C.ar    1  UNL1        0.0080
     17 C         137.5575  141.3667  163.0019 C.3     1  UNL1        0.2358
     18 O         138.7592  140.6499  163.5421 O.3     1  UNL1       -0.4728
     19 C         138.8922  140.4154  165.0177 C.ar    1  UNL1        0.1388
     20 C         139.7747  141.3053  165.8420 C.ar    1  UNL1        0.0382
     21 C         139.9077  141.0709  167.3176 C.ar    1  UNL1        0.0190
     22 C         139.1581  139.9466  167.9689 C.ar    1  UNL1        0.0646
     23 C         138.2757  139.0567  167.1447 C.ar    1  UNL1        0.0190
     24 C         138.1427  139.2912  165.6691 C.ar    1  UNL1        0.0382
     25 N         139.2911  139.7122  169.4445 N.pl3   1  UNL1       -0.2187
     26 H         138.6952  139.0723  169.8970 H       1  UNL1        0.1734
     27 S         140.3321  140.4526  170.2307 S.O2    1  UNL1        0.0558
     28 C         141.3730  141.1931  171.0170 C.3     1  UNL1        0.1996
     29 O         141.3608  139.4404  169.8221 O.2     1  UNL1       -0.1544
     30 O         139.3034  141.4649  170.6394 O.2     1  UNL1       -0.1544
@<TRIPOS>BOND
     1     5     6    1
     2     6     7    1
     3     7     8    1
     4     8     9    1
     5     9    10   ar
     6    10    11   ar
     7    11    12   ar
     8    12    13    1
     9    12    14   ar
    10    14    15    1
    11    14    16   ar
    12     6     4    1
    13     4     1    1
    14     1     2    1
    15     1    17    1
    16    17    18    1
    17    18    19    1
    18    19    20   ar
    19    20    21   ar
    20    21    22   ar
    21    22    25    1
    22    25    27    1
    23    27    28    1
    24    27    29    2
    25    27    30    2
    26    22    23   ar
    27    23    24   ar
    28    16     9   ar
    29    24    19   ar
    30     2     3    1
    31    25    26    1
@<TRIPOS>MOLECULE
*****
 30 31 0 0 0
SMALL
GASTEIGER

@<TRIPOS>ATOM
      1 C         142.4631  144.5713  162.6109 C.3     1  UNL1        0.1700
      2 O         142.1745  144.9811  161.1972 O.3     1  UNL1       -0.3793
      3 H         142.9893  145.3039  160.7814 H       1  UNL1        0.2106
      4 C         143.8530  144.6994  163.1600 C.3     1  UNL1        0.1056
      5 C         144.5982  143.7213  165.4487 C.3     1  UNL1        0.0897
      6 N         144.4484  143.5809  163.9628 N.3     1  UNL1       -0.2690
      7 C         144.8938  142.3219  163.2797 C.3     1  UNL1        0.0769
      8 C         145.1417  141.0799  164.0834 C.3     1  UNL1        0.0437
      9 C         144.0780  140.0270  164.1842 C.ar    1  UNL1       -0.0199
     10 C         143.7327  139.4350  165.5185 C.ar    1  UNL1       -0.0033
     11 C         142.6691  138.3822  165.6192 C.ar    1  UNL1        0.0119
     12 C         141.9508  137.9213  164.3857 C.ar    1  UNL1        0.0682
     13 CL        140.8871  136.8684  164.4864 Cl      1  UNL1       -0.0814
     14 C         142.2961  138.5133  163.0514 C.ar    1  UNL1        0.0679
     15 CL        141.5778  138.0524  161.8179 Cl      1  UNL1       -0.0814
     16 C         143.3597  139.5661  162.9507 C.ar    1  UNL1        0.0080
     17 C         141.3617  144.0333  163.4755 C.3     1  UNL1        0.2358
     18 O         141.0806  142.5602  163.5020 O.3     1  UNL1       -0.4728
     19 C         140.7342  141.8858  164.7963 C.ar    1  UNL1        0.1388
     20 C         141.4150  142.3045  166.0657 C.ar    1  UNL1        0.0382
     21 C         141.0687  141.6301  167.3601 C.ar    1  UNL1        0.0190
     22 C         140.0416  140.5371  167.3850 C.ar    1  UNL1        0.0646
     23 C         139.3609  140.1186  166.1156 C.ar    1  UNL1        0.0190
     24 C         139.7072  140.7929  164.8213 C.ar    1  UNL1        0.0382
     25 N         139.6953  139.8628  168.6793 N.pl3   1  UNL1       -0.2187
     26 H         139.0845  139.0907  168.6841 H       1  UNL1        0.1734
     27 S         140.2795  140.3650  169.9664 S.O2    1  UNL1        0.0558
     28 C         140.8637  140.8671  171.2535 C.3     1  UNL1        0.1996
     29 O         141.4901  139.5056  169.7522 O.2     1  UNL1       -0.1544
     30 O         139.0689  141.2243  170.1806 O.2     1  UNL1       -0.1544
@<TRIPOS>BOND
     1     5     6    1
     2     6     7    1
     3     7     8    1
     4     8     9    1
     5     9    10   ar
     6    10    11   ar
     7    11    12   ar
     8    12    13    1
     9    12    14   ar
    10    14    15    1
    11    14    16   ar
    12     6     4    1
    13     4     1    1
    14     1     2    1
    15     1    17    1
    16    17    18    1
    17    18    19    1
    18    19    20   ar
    19    20    21   ar
    20    21    22   ar
    21    22    25    1
    22    25    27    1
    23    27    28    1
    24    27    29    2
    25    27    30    2
    26    22    23   ar
    27    23    24   ar
    28    16     9   ar
    29    24    19   ar
    30     2     3    1
    31    25    26    1
@<TRIPOS>MOLECULE
*****
 30 31 0 0 0
SMALL
GASTEIGER

@<TRIPOS>ATOM
      1 C         143.1144  144.5873  163.4020 C.3     1  UNL1        0.1700
      2 O         144.0937  145.3615  162.5705 O.3     1  UNL1       -0.3793
      3 H         143.7423  146.2494  162.4000 H       1  UNL1        0.2106
      4 C         141.8257  145.2244  163.8302 C.3     1  UNL1        0.1056
      5 C         140.6057  144.9364  161.5546 C.3     1  UNL1        0.0897
      6 N         140.5681  144.9683  163.0537 N.3     1  UNL1       -0.2690
      7 C         139.2729  144.7443  163.7765 C.3     1  UNL1        0.0769
      8 C         138.2621  143.7837  163.2238 C.3     1  UNL1        0.0437
      9 C         138.4828  142.3056  163.3533 C.ar    1  UNL1       -0.0199
     10 C         139.1201  141.5413  162.2310 C.ar    1  UNL1       -0.0033
     11 C         139.3408  140.0633  162.3606 C.ar    1  UNL1        0.0119
     12 C         138.9242  139.3497  163.6125 C.ar    1  UNL1        0.0682
     13 CL        139.1450  137.8716  163.7420 Cl      1  UNL1       -0.0814
     14 C         138.2870  140.1140  164.7348 C.ar    1  UNL1        0.0679
     15 CL        137.8704  139.4004  165.9866 Cl      1  UNL1       -0.0814
     16 C         138.0662  141.5920  164.6052 C.ar    1  UNL1        0.0080
     17 C         143.4237  143.1760  163.8053 C.3     1  UNL1        0.2358
     18 O         142.3466  142.1327  163.7698 O.3     1  UNL1       -0.4728
     19 C         141.8315  141.5428  165.0492 C.ar    1  UNL1        0.1388
     20 C         141.9807  140.0734  165.3111 C.ar    1  UNL1        0.0382
     21 C         141.4655  139.4835  166.5905 C.ar    1  UNL1        0.0190
     22 C         140.8011  140.3631  167.6078 C.ar    1  UNL1        0.0646
     23 C         140.6519  141.8325  167.3458 C.ar    1  UNL1        0.0190
     24 C         141.1671  142.4223  166.0665 C.ar    1  UNL1        0.0382
     25 N         140.2859  139.7733  168.8872 N.pl3   1  UNL1       -0.2187
     26 H         139.7421  138.9529  168.8671 H       1  UNL1        0.1734
     27 S         140.5994  140.4335  170.1971 S.O2    1  UNL1        0.0558
     28 C         140.9129  141.0936  171.5070 C.3     1  UNL1        0.1996
     29 O         139.1557  140.8092  170.3533 O.2     1  UNL1       -0.1544
     30 O         142.0431  140.0578  170.0409 O.2     1  UNL1       -0.1544
@<TRIPOS>BOND
     1     5     6    1
     2     6     7    1
     3     7     8    1
     4     8     9    1
     5     9    10   ar
     6    10    11   ar
     7    11    12   ar
     8    12    13    1
     9    12    14   ar
    10    14    15    1
    11    14    16   ar
    12     6     4    1
    13     4     1    1
    14     1     2    1
    15     1    17    1
    16    17    18    1
    17    18    19    1
    18    19    20   ar
    19    20    21   ar
    20    21    22   ar
    21    22    25    1
    22    25    27    1
    23    27    28    1
    24    27    29    2
    25    27    30    2
    26    22    23   ar
    27    23    24   ar
    28    16     9   ar
    29    24    19   ar
    30     2     3    1
    31    25    26    1
@<TRIPOS>MOLECULE
*****
 30 31 0 0 0
SMALL
GASTEIGER

@<TRIPOS>ATOM
      1 C         140.3257  145.2976  162.7086 C.3     1  UNL1        0.1700
      2 O         140.4118  146.7750  162.4642 O.3     1  UNL1       -0.3793
      3 H         139.6924  147.0475  161.8734 H       1  UNL1        0.2106
      4 C         139.2345  144.4935  162.0663 C.3     1  UNL1        0.1056
      5 C         137.7894  144.3141  164.2180 C.3     1  UNL1        0.0897
      6 N         138.2624  143.7328  162.9186 N.3     1  UNL1       -0.2690
      7 C         137.7633  142.3907  162.4715 C.3     1  UNL1        0.0769
      8 C         137.4079  141.3461  163.4876 C.3     1  UNL1        0.0437
      9 C         138.3573  140.2192  163.7683 C.ar    1  UNL1       -0.0199
     10 C         138.2710  139.4713  165.0656 C.ar    1  UNL1       -0.0033
     11 C         139.2203  138.3444  165.3463 C.ar    1  UNL1        0.0119
     12 C         140.2560  137.9654  164.3296 C.ar    1  UNL1        0.0682
     13 CL        141.2054  136.8384  164.6103 Cl      1  UNL1       -0.0814
     14 C         140.3423  138.7132  163.0322 C.ar    1  UNL1        0.0679
     15 CL        141.3780  138.3342  162.0155 Cl      1  UNL1       -0.0814
     16 C         139.3930  139.8401  162.7516 C.ar    1  UNL1        0.0080
     17 C         141.3309  144.6243  163.5953 C.3     1  UNL1        0.2358
     18 O         141.5661  143.1476  163.4761 O.3     1  UNL1       -0.4728
     19 C         141.5378  142.2824  164.7011 C.ar    1  UNL1        0.1388
     20 C         142.4903  141.1305  164.8279 C.ar    1  UNL1        0.0382
     21 C         142.4621  140.2653  166.0529 C.ar    1  UNL1        0.0190
     22 C         141.4813  140.5520  167.1511 C.ar    1  UNL1        0.0646
     23 C         140.5288  141.7038  167.0243 C.ar    1  UNL1        0.0190
     24 C         140.5571  142.5690  165.7993 C.ar    1  UNL1        0.0382
     25 N         141.4530  139.6868  168.3761 N.pl3   1  UNL1       -0.2187
     26 H         141.4497  138.7064  168.2863 H       1  UNL1        0.1734
     27 S         141.4299  140.3153  169.7379 S.O2    1  UNL1        0.0558
     28 C         141.4067  140.9439  171.0996 C.3     1  UNL1        0.1996
     29 O         142.8081  140.8614  169.5093 O.2     1  UNL1       -0.1544
     30 O         140.0517  139.7693  169.9665 O.2     1  UNL1       -0.1544
@<TRIPOS>BOND
     1     5     6    1
     2     6     7    1
     3     7     8    1
     4     8     9    1
     5     9    10   ar
     6    10    11   ar
     7    11    12   ar
     8    12    13    1
     9    12    14   ar
    10    14    15    1
    11    14    16   ar
    12     6     4    1
    13     4     1    1
    14     1     2    1
    15     1    17    1
    16    17    18    1
    17    18    19    1
    18    19    20   ar
    19    20    21   ar
    20    21    22   ar
    21    22    25    1
    22    25    27    1
    23    27    28    1
    24    27    29    2
    25    27    30    2
    26    22    23   ar
    27    23    24   ar
    28    16     9   ar
    29    24    19   ar
    30     2     3    1
    31    25    26    1
@<TRIPOS>MOLECULE
*****
 30 31 0 0 0
SMALL
GASTEIGER

@<TRIPOS>ATOM
      1 C         138.0968  143.7877  162.6849 C.3     1  UNL1        0.1700
      2 O         137.5994  143.2193  161.3890 O.3     1  UNL1       -0.3793
      3 H         137.8480  143.8094  160.6604 H       1  UNL1        0.2106
      4 C         138.8509  145.0842  162.6947 C.3     1  UNL1        0.1056
      5 C         140.6537  144.8865  160.8344 C.3     1  UNL1        0.0897
      6 N         140.2894  145.1184  162.2709 N.3     1  UNL1       -0.2690
      7 C         141.3636  145.3846  163.2835 C.3     1  UNL1        0.0769
      8 C         142.6483  144.6120  163.2347 C.3     1  UNL1        0.0437
      9 C         142.7390  143.2652  163.8890 C.ar    1  UNL1       -0.0199
     10 C         143.4723  143.1104  165.1883 C.ar    1  UNL1       -0.0033
     11 C         143.5629  141.7636  165.8425 C.ar    1  UNL1        0.0119
     12 C         142.9201  140.5717  165.1974 C.ar    1  UNL1        0.0682
     13 CL        143.0107  139.2249  165.8517 Cl      1  UNL1       -0.0814
     14 C         142.1868  140.7265  163.8981 C.ar    1  UNL1        0.0679
     15 CL        141.5441  139.5345  163.2531 Cl      1  UNL1       -0.0814
     16 C         142.0962  142.0732  163.2439 C.ar    1  UNL1        0.0080
     17 C         137.8400  143.0596  163.9709 C.3     1  UNL1        0.2358
     18 O         138.6351  141.8339  164.3105 O.3     1  UNL1       -0.4728
     19 C         139.3001  141.7187  165.6501 C.ar    1  UNL1        0.1388
     20 C         139.9289  142.9253  166.2816 C.ar    1  UNL1        0.0382
     21 C         140.5939  142.8101  167.6212 C.ar    1  UNL1        0.0190
     22 C         140.6303  141.4881  168.3292 C.ar    1  UNL1        0.0646
     23 C         140.0016  140.2816  167.6977 C.ar    1  UNL1        0.0190
     24 C         139.3365  140.3968  166.3582 C.ar    1  UNL1        0.0382
     25 N         141.2953  141.3729  169.6688 N.pl3   1  UNL1       -0.2187
     26 H         140.8139  140.9637  170.4238 H       1  UNL1        0.1734
     27 S         142.6939  141.8811  169.8580 S.O2    1  UNL1        0.0558
     28 C         144.0925  142.3893  170.0471 C.3     1  UNL1        0.1996
     29 O         142.1591  143.0880  170.5702 O.2     1  UNL1       -0.1544
     30 O         143.2288  140.6742  169.1457 O.2     1  UNL1       -0.1544
@<TRIPOS>BOND
     1     5     6    1
     2     6     7    1
     3     7     8    1
     4     8     9    1
     5     9    10   ar
     6    10    11   ar
     7    11    12   ar
     8    12    13    1
     9    12    14   ar
    10    14    15    1
    11    14    16   ar
    12     6     4    1
    13     4     1    1
    14     1     2    1
    15     1    17    1
    16    17    18    1
    17    18    19    1
    18    19    20   ar
    19    20    21   ar
    20    21    22   ar
    21    22    25    1
    22    25    27    1
    23    27    28    1
    24    27    29    2
    25    27    30    2
    26    22    23   ar
    27    23    24   ar
    28    16     9   ar
    29    24    19   ar
    30     2     3    1
    31    25    26    1
@<TRIPOS>MOLECULE
*****
 30 31 0 0 0
SMALL
GASTEIGER

@<TRIPOS>ATOM
      1 C         142.0259  140.8987  170.4848 C.3     1  UNL1        0.1700
      2 O         142.0467  140.8256  171.9829 O.3     1  UNL1       -0.3793
      3 H         141.2810  141.3017  172.3405 H       1  UNL1        0.2106
      4 C         140.9215  141.6339  169.7851 C.3     1  UNL1        0.1056
      5 C         138.7118  140.3251  170.1776 C.3     1  UNL1        0.0897
      6 N         139.7447  140.8790  169.2416 N.3     1  UNL1       -0.2690
      7 C         139.6009  140.6781  167.7621 C.3     1  UNL1        0.0769
      8 C         139.1007  139.3687  167.2281 C.3     1  UNL1        0.0437
      9 C         138.8539  139.2034  165.7578 C.ar    1  UNL1       -0.0199
     10 C         139.2231  137.9199  165.0749 C.ar    1  UNL1       -0.0033
     11 C         138.9763  137.7546  163.6047 C.ar    1  UNL1        0.0119
     12 C         138.3602  138.8729  162.8172 C.ar    1  UNL1        0.0682
     13 CL        138.1134  138.7075  161.3469 Cl      1  UNL1       -0.0814
     14 C         137.9910  140.1563  163.5001 C.ar    1  UNL1        0.0679
     15 CL        137.3749  141.2746  162.7126 Cl      1  UNL1       -0.0814
     16 C         138.2378  140.3216  164.9703 C.ar    1  UNL1        0.0080
     17 C         143.1096  140.2366  169.6865 C.3     1  UNL1        0.2358
     18 O         142.7564  139.2258  168.6361 O.3     1  UNL1       -0.4728
     19 C         142.9616  139.5484  167.1856 C.ar    1  UNL1        0.1388
     20 C         143.1459  138.4417  166.1899 C.ar    1  UNL1        0.0382
     21 C         143.3512  138.7643  164.7395 C.ar    1  UNL1        0.0190
     22 C         143.3722  140.1936  164.2847 C.ar    1  UNL1        0.0646
     23 C         143.1879  141.3002  165.2804 C.ar    1  UNL1        0.0190
     24 C         142.9826  140.9776  166.7308 C.ar    1  UNL1        0.0382
     25 N         143.5774  140.5162  162.8343 N.pl3   1  UNL1       -0.2187
     26 H         143.3853  139.8378  162.1471 H       1  UNL1        0.1734
     27 S         144.0754  141.8724  162.4308 S.O2    1  UNL1        0.0558
     28 C         144.5735  143.2285  162.0273 C.3     1  UNL1        0.1996
     29 O         142.6623  142.3278  162.2171 O.2     1  UNL1       -0.1544
     30 O         145.4885  141.4170  162.6444 O.2     1  UNL1       -0.1544
@<TRIPOS>BOND
     1     5     6    1
     2     6     7    1
     3     7     8    1
     4     8     9    1
     5     9    10   ar
     6    10    11   ar
     7    11    12   ar
     8    12    13    1
     9    12    14   ar
    10    14    15    1
    11    14    16   ar
    12     6     4    1
    13     4     1    1
    14     1     2    1
    15     1    17    1
    16    17    18    1
    17    18    19    1
    18    19    20   ar
    19    20    21   ar
    20    21    22   ar
    21    22    25    1
    22    25    27    1
    23    27    28    1
    24    27    29    2
    25    27    30    2
    26    22    23   ar
    27    23    24   ar
    28    16     9   ar
    29    24    19   ar
    30     2     3    1
    31    25    26    1
@<TRIPOS>MOLECULE
*****
 30 31 0 0 0
SMALL
GASTEIGER

@<TRIPOS>ATOM
      1 C         143.9280  139.0500  162.8923 C.3     1  UNL1        0.1700
      2 O         144.4094  138.1246  161.8144 O.3     1  UNL1       -0.3793
      3 H         145.3713  138.2084  161.7221 H       1  UNL1        0.2106
      4 C         144.9064  139.9149  163.6302 C.3     1  UNL1        0.1056
      5 C         144.8741  141.7890  161.8312 C.3     1  UNL1        0.0897
      6 N         145.0617  141.3592  163.2559 N.3     1  UNL1       -0.2690
      7 C         145.4047  142.3735  164.3065 C.3     1  UNL1        0.0769
      8 C         144.3677  142.8026  165.3016 C.3     1  UNL1        0.0437
      9 C         143.0748  143.3978  164.8282 C.ar    1  UNL1       -0.0199
     10 C         143.0864  144.6039  163.9364 C.ar    1  UNL1       -0.0033
     11 C         141.7935  145.1990  163.4630 C.ar    1  UNL1        0.0119
     12 C         140.4890  144.5881  163.8814 C.ar    1  UNL1        0.0682
     13 CL        139.1960  145.1833  163.4079 Cl      1  UNL1       -0.0814
     14 C         140.4774  143.3820  164.7731 C.ar    1  UNL1        0.0679
     15 CL        139.1728  142.7711  165.1915 Cl      1  UNL1       -0.0814
     16 C         141.7703  142.7869  165.2465 C.ar    1  UNL1        0.0080
     17 C         142.4683  139.1103  163.2323 C.3     1  UNL1        0.2358
     18 O         141.9302  138.3006  164.3745 O.3     1  UNL1       -0.4728
     19 C         141.7290  138.9387  165.7171 C.ar    1  UNL1        0.1388
     20 C         140.3772  139.4610  166.1042 C.ar    1  UNL1        0.0382
     21 C         140.1760  140.0991  167.4467 C.ar    1  UNL1        0.0190
     22 C         141.3267  140.2149  168.4021 C.ar    1  UNL1        0.0646
     23 C         142.6784  139.6926  168.0149 C.ar    1  UNL1        0.0190
     24 C         142.8796  139.0545  166.6724 C.ar    1  UNL1        0.0382
     25 N         141.1255  140.8530  169.7446 N.pl3   1  UNL1       -0.2187
     26 H         141.2687  140.3285  170.5654 H       1  UNL1        0.1734
     27 S         140.7063  142.2903  169.8366 S.O2    1  UNL1        0.0558
     28 C         140.2871  143.7276  169.9286 C.3     1  UNL1        0.1996
     29 O         139.4084  141.8718  170.4613 O.2     1  UNL1       -0.1544
     30 O         142.0041  142.7089  169.2119 O.2     1  UNL1       -0.1544
@<TRIPOS>BOND
     1     5     6    1
     2     6     7    1
     3     7     8    1
     4     8     9    1
     5     9    10   ar
     6    10    11   ar
     7    11    12   ar
     8    12    13    1
     9    12    14   ar
    10    14    15    1
    11    14    16   ar
    12     6     4    1
    13     4     1    1
    14     1     2    1
    15     1    17    1
    16    17    18    1
    17    18    19    1
    18    19    20   ar
    19    20    21   ar
    20    21    22   ar
    21    22    25    1
    22    25    27    1
    23    27    28    1
    24    27    29    2
    25    27    30    2
    26    22    23   ar
    27    23    24   ar
    28    16     9   ar
    29    24    19   ar
    30     2     3    1
    31    25    26    1
@<TRIPOS>MOLECULE
*****
 30 31 0 0 0
SMALL
GASTEIGER

@<TRIPOS>ATOM
      1 C         138.3654  142.2685  161.5973 C.3     1  UNL1        0.1700
      2 O         138.3466  143.0068  160.2918 O.3     1  UNL1       -0.3793
      3 H         137.8617  142.4859  159.6327 H       1  UNL1        0.2106
      4 C         137.6918  140.9333  161.7136 C.3     1  UNL1        0.1056
      5 C         137.8702  138.3427  161.7940 C.3     1  UNL1        0.0897
      6 N         138.4695  139.6762  161.4588 N.3     1  UNL1       -0.2690
      7 C         139.8465  139.7527  160.8688 C.3     1  UNL1        0.0769
      8 C         140.8654  138.7043  161.2042 C.3     1  UNL1        0.0437
      9 C         141.4774  138.6640  162.5732 C.ar    1  UNL1       -0.0199
     10 C         141.0361  137.6258  163.5617 C.ar    1  UNL1       -0.0033
     11 C         141.6481  137.5855  164.9306 C.ar    1  UNL1        0.0119
     12 C         142.7014  138.5834  165.3109 C.ar    1  UNL1        0.0682
     13 CL        143.3133  138.5431  166.6798 Cl      1  UNL1       -0.0814
     14 C         143.1427  139.6217  164.3224 C.ar    1  UNL1        0.0679
     15 CL        144.1960  140.6196  164.7027 Cl      1  UNL1       -0.0814
     16 C         142.5307  139.6620  162.9535 C.ar    1  UNL1        0.0080
     17 C         139.0578  142.8653  162.7866 C.3     1  UNL1        0.2358
     18 O         140.1946  142.1345  163.4374 O.3     1  UNL1       -0.4728
     19 C         140.0185  141.5358  164.8014 C.ar    1  UNL1        0.1388
     20 C         139.0955  140.3693  164.9950 C.ar    1  UNL1        0.0382
     21 C         138.9193  139.7705  166.3590 C.ar    1  UNL1        0.0190
     22 C         139.6661  140.3384  167.5294 C.ar    1  UNL1        0.0646
     23 C         140.5891  141.5048  167.3358 C.ar    1  UNL1        0.0190
     24 C         140.7652  142.1035  165.9718 C.ar    1  UNL1        0.0382
     25 N         139.4900  139.7397  168.8934 N.pl3   1  UNL1       -0.2187
     26 H         138.9128  138.9513  169.0142 H       1  UNL1        0.1734
     27 S         140.1933  140.3421  170.0735 S.O2    1  UNL1        0.0558
     28 C         140.8965  140.9446  171.2535 C.3     1  UNL1        0.1996
     29 O         141.3838  139.4685  169.8101 O.2     1  UNL1       -0.1544
     30 O         139.0028  141.2158  170.3369 O.2     1  UNL1       -0.1544
@<TRIPOS>BOND
     1     5     6    1
     2     6     7    1
     3     7     8    1
     4     8     9    1
     5     9    10   ar
     6    10    11   ar
     7    11    12   ar
     8    12    13    1
     9    12    14   ar
    10    14    15    1
    11    14    16   ar
    12     6     4    1
    13     4     1    1
    14     1     2    1
    15     1    17    1
    16    17    18    1
    17    18    19    1
    18    19    20   ar
    19    20    21   ar
    20    21    22   ar
    21    22    25    1
    22    25    27    1
    23    27    28    1
    24    27    29    2
    25    27    30    2
    26    22    23   ar
    27    23    24   ar
    28    16     9   ar
    29    24    19   ar
    30     2     3    1
    31    25    26    1
@<TRIPOS>MOLECULE
*****
 30 31 0 0 0
SMALL
GASTEIGER

@<TRIPOS>ATOM
      1 C         141.1038  145.1338  161.1716 C.3     1  UNL1        0.1700
      2 O         141.6853  145.6156  159.8756 O.3     1  UNL1       -0.3793
      3 H         142.4894  145.1116  159.6747 H       1  UNL1        0.2106
      4 C         141.7772  144.0293  161.9311 C.3     1  UNL1        0.1056
      5 C         143.8181  143.0129  160.6856 C.3     1  UNL1        0.0897
      6 N         143.2593  143.8319  161.8112 N.3     1  UNL1       -0.2690
      7 C         144.1825  144.4534  162.8169 C.3     1  UNL1        0.0769
      8 C         144.0866  144.0662  164.2628 C.3     1  UNL1        0.0437
      9 C         143.9646  142.6210  164.6458 C.ar    1  UNL1       -0.0199
     10 C         144.8455  141.5958  163.9954 C.ar    1  UNL1       -0.0033
     11 C         144.7235  140.1507  164.3784 C.ar    1  UNL1        0.0119
     12 C         143.7205  139.7308  165.4117 C.ar    1  UNL1        0.0682
     13 CL        143.5986  138.2856  165.7947 Cl      1  UNL1       -0.0814
     14 C         142.8397  140.7559  166.0621 C.ar    1  UNL1        0.0679
     15 CL        141.8367  140.3360  167.0954 Cl      1  UNL1       -0.0814
     16 C         142.9617  142.2010  165.6791 C.ar    1  UNL1        0.0080
     17 C         139.8490  145.7563  161.7081 C.3     1  UNL1        0.2358
     18 O         139.4710  145.5619  163.1466 O.3     1  UNL1       -0.4728
     19 C         139.0321  144.2117  163.6309 C.ar    1  UNL1        0.1388
     20 C         137.9192  143.4893  162.9311 C.ar    1  UNL1        0.0382
     21 C         137.4802  142.1392  163.4153 C.ar    1  UNL1        0.0190
     22 C         138.1541  141.5115  164.5994 C.ar    1  UNL1        0.0646
     23 C         139.2670  142.2339  165.2991 C.ar    1  UNL1        0.0190
     24 C         139.7059  143.5840  164.8148 C.ar    1  UNL1        0.0382
     25 N         137.7152  140.1614  165.0836 N.pl3   1  UNL1       -0.2187
     26 H         136.7917  140.0273  165.3974 H       1  UNL1        0.1734
     27 S         138.6832  139.0156  165.0897 S.O2    1  UNL1        0.0558
     28 C         139.6513  137.8698  165.0959 C.3     1  UNL1        0.1996
     29 O         138.6702  138.9965  163.5899 O.2     1  UNL1       -0.1544
     30 O         138.6963  139.0346  166.5895 O.2     1  UNL1       -0.1544
@<TRIPOS>BOND
     1     5     6    1
     2     6     7    1
     3     7     8    1
     4     8     9    1
     5     9    10   ar
     6    10    11   ar
     7    11    12   ar
     8    12    13    1
     9    12    14   ar
    10    14    15    1
    11    14    16   ar
    12     6     4    1
    13     4     1    1
    14     1     2    1
    15     1    17    1
    16    17    18    1
    17    18    19    1
    18    19    20   ar
    19    20    21   ar
    20    21    22   ar
    21    22    25    1
    22    25    27    1
    23    27    28    1
    24    27    29    2
    25    27    30    2
    26    22    23   ar
    27    23    24   ar
    28    16     9   ar
    29    24    19   ar
    30     2     3    1
    31    25    26    1
