@<TRIPOS>MOLECULE
*****
 28 31 0 0 0
SMALL
GASTEIGER

@<TRIPOS>ATOM
      1 C         141.3675  138.9796  163.6234 C.ar    1  UNL1        0.0878
      2 C         140.6520  138.1643  162.5873 C.ar    1  UNL1        0.0091
      3 C         139.2874  137.6134  162.8773 C.ar    1  UNL1        0.0194
      4 C         138.6381  137.8779  164.2034 C.ar    1  UNL1        0.0844
      5 N         139.3535  138.6932  165.2395 N.ar    1  UNL1       -0.2576
      6 C         138.7042  138.9576  166.5655 C.ar    1  UNL1        0.2672
      7 O         137.3395  138.4068  166.8556 O.2     1  UNL1       -0.2665
      8 C         139.4197  139.7730  167.6016 C.ar    1  UNL1        0.0742
      9 C         138.7704  140.0374  168.9277 C.ar    1  UNL1        0.0063
     10 C         139.4858  140.8527  169.9637 C.ar    1  UNL1        0.0003
     11 C         140.8506  141.4037  169.6737 C.ar    1  UNL1        0.0015
     12 C         141.5659  142.2190  170.7098 C.ar    1  UNL1        0.0000
     13 C         142.9306  142.7698  170.4197 C.ar    1  UNL1        0.0000
     14 C         143.5799  142.5054  169.0936 C.ar    1  UNL1        0.0000
     15 C         142.8645  141.6901  168.0576 C.ar    1  UNL1        0.0015
     16 C         141.4998  141.1392  168.3476 C.ar    1  UNL1        0.0179
     17 C         140.7844  140.3238  167.3116 C.ar    1  UNL1        0.0875
     18 N         141.4336  140.0594  165.9855 N.ar    1  UNL1       -0.2276
     19 C         140.7182  139.2441  164.9494 C.ar    1  UNL1        0.1543
     20 N         142.9670  141.0115  163.3720 N.am    1  UNL1       -0.2994
     21 C         142.7322  139.5305  163.3333 C.2     1  UNL1        0.2488
     22 O         143.8622  138.6003  163.0045 O.2     1  UNL1       -0.2700
     23 H         142.2254  141.6220  163.5878 H       1  UNL1        0.1498
     24 C         144.3317  141.5623  163.0820 C.3     1  UNL1        0.1070
     25 C         144.5260  143.0416  162.9266 C.3     1  UNL1        0.0937
     26 C         144.5965  143.7147  165.4350 C.3     1  UNL1        0.0897
     27 N         144.1259  143.9709  164.0339 N.3     1  UNL1       -0.2689
     28 C         143.2553  145.1565  163.7402 C.3     1  UNL1        0.0897
@<TRIPOS>BOND
     1    26    27    1
     2    27    28    1
     3    27    25    1
     4    25    24    1
     5    24    20    1
     6    20    21   am
     7    21    22    2
     8    21     1    1
     9     1     2   ar
    10     2     3   ar
    11     3     4   ar
    12     4     5   ar
    13     5     6   ar
    14     6     7    2
    15     6     8   ar
    16     8     9   ar
    17     9    10   ar
    18    10    11   ar
    19    11    12   ar
    20    12    13   ar
    21    13    14   ar
    22    14    15   ar
    23    15    16   ar
    24    16    17   ar
    25    17    18   ar
    26    18    19   ar
    27    19     1   ar
    28    19     5   ar
    29    17     8   ar
    30    16    11   ar
    31    20    23    1
@<TRIPOS>MOLECULE
*****
 28 31 0 0 0
SMALL
GASTEIGER

@<TRIPOS>ATOM
      1 C         141.6824  141.7121  168.3962 C.ar    1  UNL1        0.0878
      2 C         141.2154  142.0189  169.7883 C.ar    1  UNL1        0.0091
      3 C         139.9656  141.3807  170.3179 C.ar    1  UNL1        0.0194
      4 C         139.1826  140.4356  169.4553 C.ar    1  UNL1        0.0844
      5 N         139.6496  140.1288  168.0633 N.ar    1  UNL1       -0.2576
      6 C         138.8666  139.1838  167.2008 C.ar    1  UNL1        0.2672
      7 O         137.6168  138.5455  167.7303 O.2     1  UNL1       -0.2665
      8 C         139.3336  138.8770  165.8087 C.ar    1  UNL1        0.0742
      9 C         138.5507  137.9320  164.9462 C.ar    1  UNL1        0.0063
     10 C         139.0176  137.6252  163.5541 C.ar    1  UNL1        0.0003
     11 C         140.2675  138.2635  163.0245 C.ar    1  UNL1        0.0015
     12 C         140.7345  137.9567  161.6325 C.ar    1  UNL1        0.0000
     13 C         141.9843  138.5949  161.1030 C.ar    1  UNL1        0.0000
     14 C         142.7673  139.5400  161.9655 C.ar    1  UNL1        0.0000
     15 C         142.3003  139.8468  163.3575 C.ar    1  UNL1        0.0015
     16 C         141.0505  139.2085  163.8871 C.ar    1  UNL1        0.0179
     17 C         140.5835  139.5153  165.2792 C.ar    1  UNL1        0.0875
     18 N         141.3664  140.4603  166.1417 N.ar    1  UNL1       -0.2276
     19 C         140.8995  140.7671  167.5337 C.ar    1  UNL1        0.1543
     20 N         143.0975  142.5654  166.3914 N.am    1  UNL1       -0.2994
     21 C         142.9323  142.3504  167.8667 C.2     1  UNL1        0.2488
     22 O         144.0169  142.7737  168.8125 O.2     1  UNL1       -0.2700
     23 H         142.3857  142.2876  165.7707 H       1  UNL1        0.1498
     24 C         144.3475  143.2037  165.8619 C.3     1  UNL1        0.1070
     25 C         144.3913  143.7096  164.4505 C.3     1  UNL1        0.0937
     26 C         145.7130  141.6194  163.6542 C.3     1  UNL1        0.0897
     27 N         144.8506  142.8069  163.3441 N.3     1  UNL1       -0.2689
     28 C         144.4476  143.0917  161.9276 C.3     1  UNL1        0.0897
@<TRIPOS>BOND
     1    26    27    1
     2    27    28    1
     3    27    25    1
     4    25    24    1
     5    24    20    1
     6    20    21   am
     7    21    22    2
     8    21     1    1
     9     1     2   ar
    10     2     3   ar
    11     3     4   ar
    12     4     5   ar
    13     5     6   ar
    14     6     7    2
    15     6     8   ar
    16     8     9   ar
    17     9    10   ar
    18    10    11   ar
    19    11    12   ar
    20    12    13   ar
    21    13    14   ar
    22    14    15   ar
    23    15    16   ar
    24    16    17   ar
    25    17    18   ar
    26    18    19   ar
    27    19     1   ar
    28    19     5   ar
    29    17     8   ar
    30    16    11   ar
    31    20    23    1
@<TRIPOS>MOLECULE
*****
 28 31 0 0 0
SMALL
GASTEIGER

@<TRIPOS>ATOM
      1 C         139.4350  142.8787  161.1616 C.ar    1  UNL1        0.0878
      2 C         139.1041  142.7124  159.7080 C.ar    1  UNL1        0.0091
      3 C         138.5052  141.4277  159.2174 C.ar    1  UNL1        0.0194
      4 C         138.2372  140.3092  160.1803 C.ar    1  UNL1        0.0844
      5 N         138.5680  140.4755  161.6338 N.ar    1  UNL1       -0.2576
      6 C         138.2999  139.3570  162.5968 C.ar    1  UNL1        0.2672
      7 O         137.7011  138.0723  162.1061 O.2     1  UNL1       -0.2665
      8 C         138.6308  139.5234  164.0504 C.ar    1  UNL1        0.0742
      9 C         138.3627  138.4049  165.0133 C.ar    1  UNL1        0.0063
     10 C         138.6935  138.5712  166.4669 C.ar    1  UNL1        0.0003
     11 C         139.2924  139.8560  166.9576 C.ar    1  UNL1        0.0015
     12 C         139.6233  140.0223  168.4111 C.ar    1  UNL1        0.0000
     13 C         140.2221  141.3070  168.9018 C.ar    1  UNL1        0.0000
     14 C         140.4902  142.4255  167.9388 C.ar    1  UNL1        0.0000
     15 C         140.1594  142.2592  166.4853 C.ar    1  UNL1        0.0015
     16 C         139.5605  140.9745  165.9946 C.ar    1  UNL1        0.0179
     17 C         139.2297  140.8081  164.5410 C.ar    1  UNL1        0.0875
     18 N         139.4977  141.9266  163.5781 N.ar    1  UNL1       -0.2276
     19 C         139.1669  141.7603  162.1245 C.ar    1  UNL1        0.1543
     20 N         141.1255  144.1375  162.6806 N.am    1  UNL1       -0.2994
     21 C         140.0338  144.1635  161.6522 C.2     1  UNL1        0.2488
     22 O         139.5410  145.4742  161.1145 O.2     1  UNL1       -0.2700
     23 H         141.4490  143.2773  163.0336 H       1  UNL1        0.1498
     24 C         141.7244  145.4224  163.1712 C.3     1  UNL1        0.1070
     25 C         143.0901  145.4245  163.7915 C.3     1  UNL1        0.0937
     26 C         144.1637  143.4129  165.0368 C.3     1  UNL1        0.0897
     27 N         143.9259  144.1792  163.7694 N.3     1  UNL1       -0.2689
     28 C         144.5238  143.7001  162.4799 C.3     1  UNL1        0.0897
@<TRIPOS>BOND
     1    26    27    1
     2    27    28    1
     3    27    25    1
     4    25    24    1
     5    24    20    1
     6    20    21   am
     7    21    22    2
     8    21     1    1
     9     1     2   ar
    10     2     3   ar
    11     3     4   ar
    12     4     5   ar
    13     5     6   ar
    14     6     7    2
    15     6     8   ar
    16     8     9   ar
    17     9    10   ar
    18    10    11   ar
    19    11    12   ar
    20    12    13   ar
    21    13    14   ar
    22    14    15   ar
    23    15    16   ar
    24    16    17   ar
    25    17    18   ar
    26    18    19   ar
    27    19     1   ar
    28    19     5   ar
    29    17     8   ar
    30    16    11   ar
    31    20    23    1
@<TRIPOS>MOLECULE
*****
 28 31 0 0 0
SMALL
GASTEIGER

@<TRIPOS>ATOM
      1 C         142.8289  141.7614  163.5231 C.ar    1  UNL1        0.0878
      2 C         143.4889  141.1237  162.3366 C.ar    1  UNL1        0.0091
      3 C         144.1179  139.7682  162.4667 C.ar    1  UNL1        0.0194
      4 C         144.0870  139.0504  163.7834 C.ar    1  UNL1        0.0844
      5 N         143.4270  139.6880  164.9700 N.ar    1  UNL1       -0.2576
      6 C         143.3961  138.9701  166.2867 C.ar    1  UNL1        0.2672
      7 O         144.0251  137.6146  166.4168 O.2     1  UNL1       -0.2665
      8 C         142.7361  139.6078  167.4732 C.ar    1  UNL1        0.0742
      9 C         142.7051  138.8899  168.7899 C.ar    1  UNL1        0.0063
     10 C         142.0452  139.5275  169.9764 C.ar    1  UNL1        0.0003
     11 C         141.4161  140.8830  169.8463 C.ar    1  UNL1        0.0015
     12 C         140.7562  141.5206  171.0328 C.ar    1  UNL1        0.0000
     13 C         140.1272  142.8761  170.9026 C.ar    1  UNL1        0.0000
     14 C         140.1581  143.5940  169.5859 C.ar    1  UNL1        0.0000
     15 C         140.8181  142.9564  168.3994 C.ar    1  UNL1        0.0015
     16 C         141.4471  141.6009  168.5296 C.ar    1  UNL1        0.0179
     17 C         142.1071  140.9632  167.3430 C.ar    1  UNL1        0.0875
     18 N         142.1380  141.6811  166.0263 N.ar    1  UNL1       -0.2276
     19 C         142.7980  141.0435  164.8398 C.ar    1  UNL1        0.1543
     20 N         140.8343  143.3676  163.9605 N.am    1  UNL1       -0.2994
     21 C         142.1999  143.1169  163.3929 C.2     1  UNL1        0.2488
     22 O         142.9365  144.2217  162.6951 O.2     1  UNL1       -0.2700
     23 H         140.3508  142.6425  164.4185 H       1  UNL1        0.1498
     24 C         140.2053  144.7232  163.8303 C.3     1  UNL1        0.1070
     25 C         139.2448  145.0000  162.7119 C.3     1  UNL1        0.0937
     26 C         139.0248  143.1749  160.8760 C.3     1  UNL1        0.0897
     27 N         139.5444  144.5078  161.3270 N.3     1  UNL1       -0.2689
     28 C         140.3635  145.3485  160.3931 C.3     1  UNL1        0.0897
@<TRIPOS>BOND
     1    26    27    1
     2    27    28    1
     3    27    25    1
     4    25    24    1
     5    24    20    1
     6    20    21   am
     7    21    22    2
     8    21     1    1
     9     1     2   ar
    10     2     3   ar
    11     3     4   ar
    12     4     5   ar
    13     5     6   ar
    14     6     7    2
    15     6     8   ar
    16     8     9   ar
    17     9    10   ar
    18    10    11   ar
    19    11    12   ar
    20    12    13   ar
    21    13    14   ar
    22    14    15   ar
    23    15    16   ar
    24    16    17   ar
    25    17    18   ar
    26    18    19   ar
    27    19     1   ar
    28    19     5   ar
    29    17     8   ar
    30    16    11   ar
    31    20    23    1
@<TRIPOS>MOLECULE
*****
 28 31 0 0 0
SMALL
GASTEIGER

@<TRIPOS>ATOM
      1 C         139.6269  140.0055  167.3504 C.ar    1  UNL1        0.0878
      2 C         139.2483  139.8234  168.7905 C.ar    1  UNL1        0.0091
      3 C         140.0886  140.4381  169.8703 C.ar    1  UNL1        0.0194
      4 C         141.3074  141.2348  169.5102 C.ar    1  UNL1        0.0844
      5 N         141.6860  141.4168  168.0702 N.ar    1  UNL1       -0.2576
      6 C         142.9048  142.2135  167.7101 C.ar    1  UNL1        0.2672
      7 O         143.7451  142.8282  168.7899 O.2     1  UNL1       -0.2665
      8 C         143.2834  142.3956  166.2701 C.ar    1  UNL1        0.0742
      9 C         144.5022  143.1923  165.9099 C.ar    1  UNL1        0.0063
     10 C         144.8808  143.3743  164.4700 C.ar    1  UNL1        0.0003
     11 C         144.0405  142.7596  163.3901 C.ar    1  UNL1        0.0015
     12 C         144.4191  142.9417  161.9501 C.ar    1  UNL1        0.0000
     13 C         143.5788  142.3270  160.8703 C.ar    1  UNL1        0.0000
     14 C         142.3599  141.5303  161.2304 C.ar    1  UNL1        0.0000
     15 C         141.9814  141.3483  162.6704 C.ar    1  UNL1        0.0015
     16 C         142.8217  141.9629  163.7502 C.ar    1  UNL1        0.0179
     17 C         142.4431  141.7809  165.1902 C.ar    1  UNL1        0.0875
     18 N         141.2243  140.9842  165.5504 N.ar    1  UNL1       -0.2276
     19 C         140.8457  140.8022  166.9903 C.ar    1  UNL1        0.1543
     20 N         139.2867  139.3607  164.8568 N.am    1  UNL1       -0.2994
     21 C         138.7866  139.3908  166.2706 C.2     1  UNL1        0.2488
     22 O         137.4461  138.8063  166.6046 O.2     1  UNL1       -0.2700
     23 H         140.1665  139.7443  164.6375 H       1  UNL1        0.1498
     24 C         138.4463  138.7459  163.7769 C.3     1  UNL1        0.1070
     25 C         138.9855  137.6063  162.9642 C.3     1  UNL1        0.0937
     26 C         139.6276  138.3191  160.5498 C.3     1  UNL1        0.0897
     27 N         140.0314  137.8591  161.9192 N.3     1  UNL1       -0.2689
     28 C         141.4812  137.6520  162.2436 C.3     1  UNL1        0.0897
@<TRIPOS>BOND
     1    26    27    1
     2    27    28    1
     3    27    25    1
     4    25    24    1
     5    24    20    1
     6    20    21   am
     7    21    22    2
     8    21     1    1
     9     1     2   ar
    10     2     3   ar
    11     3     4   ar
    12     4     5   ar
    13     5     6   ar
    14     6     7    2
    15     6     8   ar
    16     8     9   ar
    17     9    10   ar
    18    10    11   ar
    19    11    12   ar
    20    12    13   ar
    21    13    14   ar
    22    14    15   ar
    23    15    16   ar
    24    16    17   ar
    25    17    18   ar
    26    18    19   ar
    27    19     1   ar
    28    19     5   ar
    29    17     8   ar
    30    16    11   ar
    31    20    23    1
@<TRIPOS>MOLECULE
*****
 28 31 0 0 0
SMALL
GASTEIGER

@<TRIPOS>ATOM
      1 C         143.3696  139.5759  164.7005 C.ar    1  UNL1        0.0878
      2 C         143.7323  138.5848  165.7664 C.ar    1  UNL1        0.0091
      3 C         143.1121  138.6874  167.1283 C.ar    1  UNL1        0.0194
      4 C         142.1293  139.7813  167.4244 C.ar    1  UNL1        0.0844
      5 N         141.7667  140.7724  166.3585 N.ar    1  UNL1       -0.2576
      6 C         140.7839  141.8662  166.6546 C.ar    1  UNL1        0.2672
      7 O         140.1637  141.9689  168.0165 O.2     1  UNL1       -0.2665
      8 C         140.4212  142.8574  165.5887 C.ar    1  UNL1        0.0742
      9 C         139.4384  143.9512  165.8847 C.ar    1  UNL1        0.0063
     10 C         139.0757  144.9424  164.8189 C.ar    1  UNL1        0.0003
     11 C         139.6959  144.8397  163.4569 C.ar    1  UNL1        0.0015
     12 C         139.3332  145.8309  162.3911 C.ar    1  UNL1        0.0000
     13 C         139.9534  145.7282  161.0292 C.ar    1  UNL1        0.0000
     14 C         140.9362  144.6344  160.7331 C.ar    1  UNL1        0.0000
     15 C         141.2988  143.6432  161.7989 C.ar    1  UNL1        0.0015
     16 C         140.6787  143.7459  163.1608 C.ar    1  UNL1        0.0179
     17 C         141.0414  142.7547  164.2268 C.ar    1  UNL1        0.0875
     18 N         142.0242  141.6609  163.9307 N.ar    1  UNL1       -0.2276
     19 C         142.3868  140.6698  164.9965 C.ar    1  UNL1        0.1543
     20 N         143.4686  138.4721  162.3507 N.am    1  UNL1       -0.2994
     21 C         143.9898  139.4733  163.3386 C.2     1  UNL1        0.2488
     22 O         145.1312  140.3718  162.9645 O.2     1  UNL1       -0.2700
     23 H         142.7194  137.8823  162.5962 H       1  UNL1        0.1498
     24 C         144.0888  138.3694  160.9887 C.3     1  UNL1        0.1070
     25 C         143.7692  139.3932  159.9400 C.3     1  UNL1        0.0937
     26 C         143.6490  139.8385  157.3833 C.3     1  UNL1        0.0897
     27 N         143.3671  138.9558  158.5628 N.3     1  UNL1       -0.2689
     28 C         142.6830  137.6356  158.3650 C.3     1  UNL1        0.0897
@<TRIPOS>BOND
     1    26    27    1
     2    27    28    1
     3    27    25    1
     4    25    24    1
     5    24    20    1
     6    20    21   am
     7    21    22    2
     8    21     1    1
     9     1     2   ar
    10     2     3   ar
    11     3     4   ar
    12     4     5   ar
    13     5     6   ar
    14     6     7    2
    15     6     8   ar
    16     8     9   ar
    17     9    10   ar
    18    10    11   ar
    19    11    12   ar
    20    12    13   ar
    21    13    14   ar
    22    14    15   ar
    23    15    16   ar
    24    16    17   ar
    25    17    18   ar
    26    18    19   ar
    27    19     1   ar
    28    19     5   ar
    29    17     8   ar
    30    16    11   ar
    31    20    23    1
@<TRIPOS>MOLECULE
*****
 28 31 0 0 0
SMALL
GASTEIGER

@<TRIPOS>ATOM
      1 C         141.4336  143.8608  161.0247 C.ar    1  UNL1        0.0878
      2 C         140.7850  145.0396  160.3615 C.ar    1  UNL1        0.0091
      3 C         139.8547  145.9207  161.1413 C.ar    1  UNL1        0.0194
      4 C         139.5730  145.6232  162.5842 C.ar    1  UNL1        0.0844
      5 N         140.2216  144.4444  163.2474 N.ar    1  UNL1       -0.2576
      6 C         139.9399  144.1469  164.6904 C.ar    1  UNL1        0.2672
      7 O         139.0096  145.0280  165.4701 O.2     1  UNL1       -0.2665
      8 C         140.5886  142.9681  165.3536 C.ar    1  UNL1        0.0742
      9 C         140.3069  142.6705  166.7965 C.ar    1  UNL1        0.0063
     10 C         140.9555  141.4918  167.4597 C.ar    1  UNL1        0.0003
     11 C         141.8858  140.6106  166.6800 C.ar    1  UNL1        0.0015
     12 C         142.5345  139.4319  167.3432 C.ar    1  UNL1        0.0000
     13 C         143.4648  138.5507  166.5634 C.ar    1  UNL1        0.0000
     14 C         143.7465  138.8483  165.1205 C.ar    1  UNL1        0.0000
     15 C         143.0978  140.0270  164.4573 C.ar    1  UNL1        0.0015
     16 C         142.1675  140.9081  165.2370 C.ar    1  UNL1        0.0179
     17 C         141.5189  142.0869  164.5738 C.ar    1  UNL1        0.0875
     18 N         141.8006  142.3845  163.1309 N.ar    1  UNL1       -0.2276
     19 C         141.1519  143.5632  162.4677 C.ar    1  UNL1        0.1543
     20 N         142.2141  141.4885  160.3084 N.am    1  UNL1       -0.2994
     21 C         142.3639  142.9796  160.2450 C.2     1  UNL1        0.2488
     22 O         143.4442  143.5896  159.4017 O.2     1  UNL1       -0.2700
     23 H         141.5051  141.0881  160.8619 H       1  UNL1        0.1498
     24 C         143.1445  140.6073  159.5286 C.3     1  UNL1        0.1070
     25 C         142.9125  139.1261  159.4831 C.3     1  UNL1        0.0937
     26 C         141.4133  138.0487  161.3110 C.3     1  UNL1        0.0897
     27 N         142.7752  138.3488  160.7586 N.3     1  UNL1       -0.2689
     28 C         143.9997  137.8718  161.4817 C.3     1  UNL1        0.0897
@<TRIPOS>BOND
     1    26    27    1
     2    27    28    1
     3    27    25    1
     4    25    24    1
     5    24    20    1
     6    20    21   am
     7    21    22    2
     8    21     1    1
     9     1     2   ar
    10     2     3   ar
    11     3     4   ar
    12     4     5   ar
    13     5     6   ar
    14     6     7    2
    15     6     8   ar
    16     8     9   ar
    17     9    10   ar
    18    10    11   ar
    19    11    12   ar
    20    12    13   ar
    21    13    14   ar
    22    14    15   ar
    23    15    16   ar
    24    16    17   ar
    25    17    18   ar
    26    18    19   ar
    27    19     1   ar
    28    19     5   ar
    29    17     8   ar
    30    16    11   ar
    31    20    23    1
@<TRIPOS>MOLECULE
*****
 28 31 0 0 0
SMALL
GASTEIGER

@<TRIPOS>ATOM
      1 C         142.3960  143.8782  157.2524 C.ar    1  UNL1        0.0878
      2 C         141.5389  144.4698  156.1728 C.ar    1  UNL1        0.0091
      3 C         140.3957  145.3718  156.5325 C.ar    1  UNL1        0.0194
      4 C         140.1095  145.6823  157.9718 C.ar    1  UNL1        0.0844
      5 N         140.9666  145.0908  159.0515 N.ar    1  UNL1       -0.2576
      6 C         140.6804  145.4013  160.4908 C.ar    1  UNL1        0.2672
      7 O         139.5372  146.3033  160.8505 O.2     1  UNL1       -0.2665
      8 C         141.5374  144.8098  161.5704 C.ar    1  UNL1        0.0742
      9 C         141.2513  145.1203  163.0098 C.ar    1  UNL1        0.0063
     10 C         142.1083  144.5288  164.0894 C.ar    1  UNL1        0.0003
     11 C         143.2515  143.6267  163.7297 C.ar    1  UNL1        0.0015
     12 C         144.1085  143.0352  164.8093 C.ar    1  UNL1        0.0000
     13 C         145.2517  142.1332  164.4496 C.ar    1  UNL1        0.0000
     14 C         145.5379  141.8227  163.0103 C.ar    1  UNL1        0.0000
     15 C         144.6809  142.4142  161.9307 C.ar    1  UNL1        0.0015
     16 C         143.5377  143.3162  162.2904 C.ar    1  UNL1        0.0179
     17 C         142.6806  143.9078  161.2107 C.ar    1  UNL1        0.0875
     18 N         142.9668  143.5972  159.7714 N.ar    1  UNL1       -0.2276
     19 C         142.1098  144.1887  158.6918 C.ar    1  UNL1        0.1543
     20 N         144.8495  143.1028  157.6119 N.am    1  UNL1       -0.2994
     21 C         143.5392  142.9762  156.8927 C.2     1  UNL1        0.2488
     22 O         143.3722  141.9476  155.8138 O.2     1  UNL1       -0.2700
     23 H         144.9591  143.7779  158.3200 H       1  UNL1        0.1498
     24 C         145.9927  142.2007  157.2521 C.3     1  UNL1        0.1070
     25 C         147.0891  142.6996  156.3582 C.3     1  UNL1        0.0937
     26 C         147.1583  143.9580  154.0864 C.3     1  UNL1        0.0897
     27 N         146.8993  142.7057  154.8703 N.3     1  UNL1       -0.2689
     28 C         146.4506  141.4595  154.1664 C.3     1  UNL1        0.0897
@<TRIPOS>BOND
     1    26    27    1
     2    27    28    1
     3    27    25    1
     4    25    24    1
     5    24    20    1
     6    20    21   am
     7    21    22    2
     8    21     1    1
     9     1     2   ar
    10     2     3   ar
    11     3     4   ar
    12     4     5   ar
    13     5     6   ar
    14     6     7    2
    15     6     8   ar
    16     8     9   ar
    17     9    10   ar
    18    10    11   ar
    19    11    12   ar
    20    12    13   ar
    21    13    14   ar
    22    14    15   ar
    23    15    16   ar
    24    16    17   ar
    25    17    18   ar
    26    18    19   ar
    27    19     1   ar
    28    19     5   ar
    29    17     8   ar
    30    16    11   ar
    31    20    23    1
@<TRIPOS>MOLECULE
*****
 28 31 0 0 0
SMALL
GASTEIGER

@<TRIPOS>ATOM
      1 C         138.9737  139.1865  165.2353 C.ar    1  UNL1        0.0878
      2 C         138.1533  138.8050  166.4317 C.ar    1  UNL1        0.0091
      3 C         138.5101  139.3395  167.7871 C.ar    1  UNL1        0.0194
      4 C         139.6872  140.2555  167.9460 C.ar    1  UNL1        0.0844
      5 N         140.5076  140.6370  166.7496 N.ar    1  UNL1       -0.2576
      6 C         141.6847  141.5530  166.9086 C.ar    1  UNL1        0.2672
      7 O         142.0415  142.0876  168.2639 O.2     1  UNL1       -0.2665
      8 C         142.5051  141.9346  165.7121 C.ar    1  UNL1        0.0742
      9 C         143.6822  142.8506  165.8710 C.ar    1  UNL1        0.0063
     10 C         144.5026  143.2321  164.6746 C.ar    1  UNL1        0.0003
     11 C         144.1459  142.6976  163.3192 C.ar    1  UNL1        0.0015
     12 C         144.9662  143.0791  162.1228 C.ar    1  UNL1        0.0000
     13 C         144.6095  142.5446  160.7675 C.ar    1  UNL1        0.0000
     14 C         143.4323  141.6286  160.6085 C.ar    1  UNL1        0.0000
     15 C         142.6120  141.2470  161.8049 C.ar    1  UNL1        0.0015
     16 C         142.9687  141.7816  163.1603 C.ar    1  UNL1        0.0179
     17 C         142.1483  141.4000  164.3568 C.ar    1  UNL1        0.0875
     18 N         140.9712  140.4840  164.1978 N.ar    1  UNL1       -0.2276
     19 C         140.1508  140.1025  165.3942 C.ar    1  UNL1        0.1543
     20 N         138.0957  139.5785  162.8217 N.am    1  UNL1       -0.2994
     21 C         138.6169  138.6520  163.8799 C.2     1  UNL1        0.2488
     22 O         138.7814  137.1909  163.5828 O.2     1  UNL1       -0.2700
     23 H         137.9878  140.5374  163.0167 H       1  UNL1        0.1498
     24 C         137.7390  139.0439  161.4663 C.3     1  UNL1        0.1070
     25 C         137.6075  139.9801  160.3016 C.3     1  UNL1        0.0937
     26 C         139.8817  140.7425  159.3034 C.3     1  UNL1        0.0897
     27 N         138.6353  141.0497  160.0794 N.3     1  UNL1       -0.2689
     28 C         138.4167  142.4265  160.6331 C.3     1  UNL1        0.0897
@<TRIPOS>BOND
     1    26    27    1
     2    27    28    1
     3    27    25    1
     4    25    24    1
     5    24    20    1
     6    20    21   am
     7    21    22    2
     8    21     1    1
     9     1     2   ar
    10     2     3   ar
    11     3     4   ar
    12     4     5   ar
    13     5     6   ar
    14     6     7    2
    15     6     8   ar
    16     8     9   ar
    17     9    10   ar
    18    10    11   ar
    19    11    12   ar
    20    12    13   ar
    21    13    14   ar
    22    14    15   ar
    23    15    16   ar
    24    16    17   ar
    25    17    18   ar
    26    18    19   ar
    27    19     1   ar
    28    19     5   ar
    29    17     8   ar
    30    16    11   ar
    31    20    23    1
