@<TRIPOS>MOLECULE
*****
 32 35 0 0 0
SMALL
GASTEIGER

@<TRIPOS>ATOM
      1 O         140.6233  138.5390  163.5569 O.2     1  UNL1       -0.2706
      2 C         139.1264  138.5015  163.6457 C.2     1  UNL1        0.2701
      3 N         138.4231  139.2155  164.7616 N.am    1  UNL1       -0.2999
      4 H         137.4406  139.1909  164.8199 H       1  UNL1        0.1496
      5 C         139.2167  139.9671  165.7889 C.3     1  UNL1        0.1035
      6 C         139.5633  139.7464  167.2315 C.3     1  UNL1        0.0933
      7 N         140.3391  141.0301  167.2416 N.3     1  UNL1       -0.2711
      8 C         139.9926  141.2510  165.7990 C.3     1  UNL1        0.0933
      9 C         141.1328  141.7817  168.2689 C.3     1  UNL1        0.0578
     10 C         140.5001  142.9111  169.0265 C.3     1  UNL1        0.0184
     11 C         141.2937  143.6627  170.0538 C.3     1  UNL1        0.0306
     12 C         142.7201  143.2849  170.3234 C.3     1  UNL1        0.1106
     13 O         143.5138  144.0364  171.3506 O.3     1  UNL1       -0.3845
     14 C         143.3528  142.1554  169.5656 C.3     1  UNL1        0.0306
     15 C         142.5592  141.4039  168.5384 C.3     1  UNL1        0.0184
     16 H         144.4097  143.6678  171.4001 H       1  UNL1        0.2103
     17 C         138.3328  137.7499  162.6184 C.3     1  UNL1        0.2850
     18 N         137.4730  138.4961  161.6415 N.pl3   1  UNL1       -0.2091
     19 H         136.5224  138.2599  161.5418 H       1  UNL1        0.2928
     20 C         138.0615  139.6021  160.8167 C.2     1  UNL1        0.3493
     21 N         138.5672  139.4796  159.4099 N.2     1  UNL1        0.0798
     22 N         139.0658  140.8266  158.9777 N.2     1  UNL1       -0.0381
     23 C         138.8683  141.7817  160.1173 C.2     1  UNL1        0.1169
     24 C         139.1734  143.2426  160.2670 C.3     1  UNL1        0.0759
     25 C         138.8578  143.9468  161.5532 C.2     1  UNL1       -0.0158
     26 C         138.2370  143.1900  162.6898 C.2     1  UNL1        0.0678
     27 C         137.9319  141.7290  162.5402 C.2     1  UNL1        0.0123
     28 C         138.2475  141.0249  161.2540 C.2     1  UNL1        0.1019
     29 C         137.9214  143.8942  163.9762 C.3     1  UNL1        0.4183
     30 F         137.6058  144.5985  165.2624 F       1  UNL1       -0.1659
     31 F         137.3234  142.6311  164.5210 F       1  UNL1       -0.1659
     32 F         138.5194  145.1573  163.4313 F       1  UNL1       -0.1659
@<TRIPOS>BOND
     1     1     2    2
     2     2    17    1
     3    17    18    1
     4    18    20    1
     5    20    21    2
     6    21    22    1
     7    22    23    2
     8    23    24    1
     9    24    25    1
    10    25    26    2
    11    26    29    1
    12    29    30    1
    13    29    31    1
    14    29    32    1
    15    26    27    1
    16    27    28    2
    17     2     3   am
    18     3     5    1
    19     5     6    1
    20     6     7    1
    21     9     7    1
    22     9    10    1
    23    10    11    1
    24    11    12    1
    25    12    13    1
    26    12    14    1
    27    14    15    1
    28     7     8    1
    29    28    20    1
    30     8     5    1
    31    28    23    1
    32    15     9    1
    33    18    19    1
    34     3     4    1
    35    13    16    1
@<TRIPOS>MOLECULE
*****
 32 35 0 0 0
SMALL
GASTEIGER

@<TRIPOS>ATOM
      1 O         139.6303  137.9260  162.9878 O.2     1  UNL1       -0.2706
      2 C         138.3668  138.6897  162.7223 C.2     1  UNL1        0.2701
      3 N         137.8192  139.6192  163.7644 N.am    1  UNL1       -0.2999
      4 H         136.9899  140.1204  163.5901 H       1  UNL1        0.1496
      5 C         138.5350  139.7850  165.0721 C.3     1  UNL1        0.1035
      6 C         139.4154  140.8403  165.6731 C.3     1  UNL1        0.0933
      7 N         139.5474  140.0194  166.9216 N.3     1  UNL1       -0.2711
      8 C         138.6670  138.9640  166.3207 C.3     1  UNL1        0.0933
      9 C         140.2632  140.1852  168.2293 C.3     1  UNL1        0.0578
     10 C         141.7360  139.9150  168.3176 C.3     1  UNL1        0.0184
     11 C         142.4518  140.0808  169.6253 C.3     1  UNL1        0.0306
     12 C         141.6949  140.5168  170.8447 C.3     1  UNL1        0.1106
     13 O         142.4106  140.6826  172.1524 O.3     1  UNL1       -0.3845
     14 C         140.2220  140.7870  170.7563 C.3     1  UNL1        0.0306
     15 C         139.5062  140.6212  169.4486 C.3     1  UNL1        0.0184
     16 H         141.7800  140.9670  172.8323 H       1  UNL1        0.2103
     17 C         137.6510  138.5239  161.4146 C.3     1  UNL1        0.2850
     18 N         137.0874  139.7227  160.7108 N.pl3   1  UNL1       -0.2091
     19 H         136.1146  139.8080  160.5859 H       1  UNL1        0.2928
     20 C         138.0061  140.7916  160.1973 C.2     1  UNL1        0.3493
     21 N         138.6690  140.8128  158.8519 N.2     1  UNL1        0.0798
     22 N         139.4957  142.0612  158.7623 N.2     1  UNL1       -0.0381
     23 C         139.3437  142.8115  160.0522 C.2     1  UNL1        0.1169
     24 C         139.9246  144.1079  160.5337 C.3     1  UNL1        0.0759
     25 C         139.5849  144.6195  161.9022 C.2     1  UNL1       -0.0158
     26 C         138.6643  143.8349  162.7891 C.2     1  UNL1        0.0678
     27 C         138.0833  142.5385  162.3076 C.2     1  UNL1        0.0123
     28 C         138.4230  142.0269  160.9391 C.2     1  UNL1        0.1019
     29 C         138.3246  144.3466  164.1577 C.3     1  UNL1        0.4183
     30 F         137.9849  144.8583  165.5261 F       1  UNL1       -0.1659
     31 F         139.3421  145.4376  164.0023 F       1  UNL1       -0.1659
     32 F         137.3070  143.2555  164.3130 F       1  UNL1       -0.1659
@<TRIPOS>BOND
     1     1     2    2
     2     2    17    1
     3    17    18    1
     4    18    20    1
     5    20    21    2
     6    21    22    1
     7    22    23    2
     8    23    24    1
     9    24    25    1
    10    25    26    2
    11    26    29    1
    12    29    30    1
    13    29    31    1
    14    29    32    1
    15    26    27    1
    16    27    28    2
    17     2     3   am
    18     3     5    1
    19     5     6    1
    20     6     7    1
    21     9     7    1
    22     9    10    1
    23    10    11    1
    24    11    12    1
    25    12    13    1
    26    12    14    1
    27    14    15    1
    28     7     8    1
    29    28    20    1
    30     8     5    1
    31    28    23    1
    32    15     9    1
    33    18    19    1
    34     3     4    1
    35    13    16    1
@<TRIPOS>MOLECULE
*****
 32 35 0 0 0
SMALL
GASTEIGER

@<TRIPOS>ATOM
      1 O         138.5846  141.0429  163.0672 O.2     1  UNL1       -0.2706
      2 C         138.3538  139.5639  162.9702 C.2     1  UNL1        0.2701
      3 N         138.6861  138.6752  164.1320 N.am    1  UNL1       -0.2999
      4 H         138.5347  137.7045  164.0683 H       1  UNL1        0.1496
      5 C         139.2491  139.2656  165.3908 C.3     1  UNL1        0.1035
      6 C         140.5194  139.9759  165.7534 C.3     1  UNL1        0.0933
      7 N         140.0452  140.1004  167.1711 N.3     1  UNL1       -0.2711
      8 C         138.7748  139.3900  166.8085 C.3     1  UNL1        0.0933
      9 C         140.6082  140.6907  168.4299 C.3     1  UNL1        0.0578
     10 C         140.3981  142.1440  168.7360 C.3     1  UNL1        0.0184
     11 C         140.9611  142.7344  169.9948 C.3     1  UNL1        0.0306
     12 C         141.7341  141.8714  170.9475 C.3     1  UNL1        0.1106
     13 O         142.2971  142.4615  172.2062 O.3     1  UNL1       -0.3845
     14 C         141.9442  140.4180  170.6413 C.3     1  UNL1        0.0306
     15 C         141.3812  139.8277  169.3825 C.3     1  UNL1        0.0184
     16 H         142.7645  141.7734  172.7051 H       1  UNL1        0.2103
     17 C         137.7909  138.9736  161.7114 C.3     1  UNL1        0.2850
     18 N         138.5543  137.9143  160.9730 N.pl3   1  UNL1       -0.2091
     19 H         138.2664  136.9742  161.0241 H       1  UNL1        0.2928
     20 C         139.7562  138.2873  160.1568 C.2     1  UNL1        0.3493
     21 N         139.7931  138.4533  158.6665 N.2     1  UNL1        0.0798
     22 N         141.1920  138.8284  158.2764 N.2     1  UNL1       -0.0381
     23 C         142.0198  138.8943  159.5256 C.2     1  UNL1        0.1169
     24 C         143.4669  139.2157  159.7549 C.3     1  UNL1        0.0759
     25 C         144.0266  139.2026  161.1465 C.2     1  UNL1       -0.0158
     26 C         143.1392  138.8681  162.3087 C.2     1  UNL1        0.0678
     27 C         141.6921  138.5468  162.0793 C.2     1  UNL1        0.0123
     28 C         141.1324  138.5599  160.6878 C.2     1  UNL1        0.1019
     29 C         143.6990  138.8550  163.7003 C.3     1  UNL1        0.4183
     30 F         144.2588  138.8420  165.0918 F       1  UNL1       -0.1659
     31 F         142.5617  137.9864  164.1497 F       1  UNL1       -0.1659
     32 F         144.8363  139.7237  163.2509 F       1  UNL1       -0.1659
@<TRIPOS>BOND
     1     1     2    2
     2     2    17    1
     3    17    18    1
     4    18    20    1
     5    20    21    2
     6    21    22    1
     7    22    23    2
     8    23    24    1
     9    24    25    1
    10    25    26    2
    11    26    29    1
    12    29    30    1
    13    29    31    1
    14    29    32    1
    15    26    27    1
    16    27    28    2
    17     2     3   am
    18     3     5    1
    19     5     6    1
    20     6     7    1
    21     9     7    1
    22     9    10    1
    23    10    11    1
    24    11    12    1
    25    12    13    1
    26    12    14    1
    27    14    15    1
    28     7     8    1
    29    28    20    1
    30     8     5    1
    31    28    23    1
    32    15     9    1
    33    18    19    1
    34     3     4    1
    35    13    16    1
@<TRIPOS>MOLECULE
*****
 32 35 0 0 0
SMALL
GASTEIGER

@<TRIPOS>ATOM
      1 O         141.7900  138.3165  163.1179 O.2     1  UNL1       -0.2706
      2 C         143.2655  138.4300  162.8733 C.2     1  UNL1        0.2701
      3 N         144.1576  139.0159  163.9272 N.am    1  UNL1       -0.2999
      4 H         145.1261  139.0904  163.7666 H       1  UNL1        0.1496
      5 C         143.5741  139.4883  165.2258 C.3     1  UNL1        0.1035
      6 C         143.0326  140.7917  165.7336 C.3     1  UNL1        0.0933
      7 N         142.7490  140.1562  167.0624 N.3     1  UNL1       -0.2711
      8 C         143.2905  138.8528  166.5547 C.3     1  UNL1        0.0933
      9 C         142.1655  140.6286  168.3610 C.3     1  UNL1        0.0578
     10 C         142.9634  141.5266  169.2592 C.3     1  UNL1        0.0184
     11 C         142.3799  141.9990  170.5578 C.3     1  UNL1        0.0306
     12 C         140.9985  141.5734  170.9583 C.3     1  UNL1        0.1106
     13 O         140.4149  142.0457  172.2568 O.3     1  UNL1       -0.3845
     14 C         140.2005  140.6753  170.0600 C.3     1  UNL1        0.0306
     15 C         140.7840  140.2030  168.7614 C.3     1  UNL1        0.0184
     16 H         139.5219  141.6815  172.3614 H       1  UNL1        0.2103
     17 C         143.8490  137.9577  161.5747 C.3     1  UNL1        0.2850
     18 N         144.4754  138.9419  160.6317 N.pl3   1  UNL1       -0.2091
     19 H         145.4144  138.8315  160.3571 H       1  UNL1        0.2928
     20 C         143.6712  140.0944  160.1073 C.2     1  UNL1        0.3493
     21 N         142.9266  140.1301  158.8057 N.2     1  UNL1        0.0798
     22 N         142.2656  141.4713  158.6865 N.2     1  UNL1       -0.0381
     23 C         142.6018  142.2646  159.9144 C.2     1  UNL1        0.1169
     24 C         142.2290  143.6518  160.3464 C.3     1  UNL1        0.0759
     25 C         142.7251  144.1881  161.6564 C.2     1  UNL1       -0.0158
     26 C         143.5938  143.3371  162.5346 C.2     1  UNL1        0.0678
     27 C         143.9665  141.9498  162.1026 C.2     1  UNL1        0.0123
     28 C         143.4705  141.4136  160.7926 C.2     1  UNL1        0.1019
     29 C         144.0898  143.8734  163.8447 C.3     1  UNL1        0.4183
     30 F         144.5858  144.4096  165.1548 F       1  UNL1       -0.1659
     31 F         143.1314  145.0222  163.7374 F       1  UNL1       -0.1659
     32 F         145.0483  142.7246  163.9521 F       1  UNL1       -0.1659
@<TRIPOS>BOND
     1     1     2    2
     2     2    17    1
     3    17    18    1
     4    18    20    1
     5    20    21    2
     6    21    22    1
     7    22    23    2
     8    23    24    1
     9    24    25    1
    10    25    26    2
    11    26    29    1
    12    29    30    1
    13    29    31    1
    14    29    32    1
    15    26    27    1
    16    27    28    2
    17     2     3   am
    18     3     5    1
    19     5     6    1
    20     6     7    1
    21     9     7    1
    22     9    10    1
    23    10    11    1
    24    11    12    1
    25    12    13    1
    26    12    14    1
    27    14    15    1
    28     7     8    1
    29    28    20    1
    30     8     5    1
    31    28    23    1
    32    15     9    1
    33    18    19    1
    34     3     4    1
    35    13    16    1
@<TRIPOS>MOLECULE
*****
 32 35 0 0 0
SMALL
GASTEIGER

@<TRIPOS>ATOM
      1 O         143.7502  140.5340  163.0891 O.2     1  UNL1       -0.2706
      2 C         143.6101  139.0527  162.8993 C.2     1  UNL1        0.2701
      3 N         143.0645  138.2027  164.0082 N.am    1  UNL1       -0.2999
      4 H         142.9726  137.2304  163.8837 H       1  UNL1        0.1496
      5 C         142.6588  138.8341  165.3070 C.3     1  UNL1        0.1035
      6 C         141.6108  139.8229  165.7240 C.3     1  UNL1        0.0933
      7 N         142.0851  139.7270  167.1438 N.3     1  UNL1       -0.2711
      8 C         143.1332  138.7382  166.7268 C.3     1  UNL1        0.0933
      9 C         141.6795  140.3584  168.4425 C.3     1  UNL1        0.0578
     10 C         142.6288  141.2700  169.1621 C.3     1  UNL1        0.0184
     11 C         142.2231  141.9014  170.4609 C.3     1  UNL1        0.0306
     12 C         140.8681  141.6213  171.0400 C.3     1  UNL1        0.1106
     13 O         140.4624  142.2526  172.3387 O.3     1  UNL1       -0.3845
     14 C         139.9188  140.7097  170.3203 C.3     1  UNL1        0.0306
     15 C         140.3245  140.0783  169.0217 C.3     1  UNL1        0.0184
     16 H         139.5638  141.9692  172.5692 H       1  UNL1        0.2103
     17 C         144.0158  138.4213  161.6006 C.3     1  UNL1        0.2850
     18 N         143.0664  137.5097  160.8809 N.pl3   1  UNL1       -0.2091
     19 H         143.2651  136.5480  160.8109 H       1  UNL1        0.2928
     20 C         141.8143  138.0634  160.2680 C.2     1  UNL1        0.3493
     21 N         141.5962  138.3460  158.8111 N.2     1  UNL1        0.0798
     22 N         140.2076  138.8890  158.6472 N.2     1  UNL1       -0.0381
     23 C         139.5675  138.9421  160.0027 C.2     1  UNL1        0.1169
     24 C         138.2088  139.3892  160.4543 C.3     1  UNL1        0.0759
     25 C         137.8431  139.3260  161.9076 C.2     1  UNL1       -0.0158
     26 C         138.8361  138.8157  162.9094 C.2     1  UNL1        0.0678
     27 C         140.1948  138.3687  162.4578 C.2     1  UNL1        0.0123
     28 C         140.5605  138.4319  161.0045 C.2     1  UNL1        0.1019
     29 C         138.4703  138.7525  164.3628 C.3     1  UNL1        0.4183
     30 F         138.1046  138.6893  165.8161 F       1  UNL1       -0.1659
     31 F         137.7977  140.0886  164.2517 F       1  UNL1       -0.1659
     32 F         139.1429  137.4164  164.4739 F       1  UNL1       -0.1659
@<TRIPOS>BOND
     1     1     2    2
     2     2    17    1
     3    17    18    1
     4    18    20    1
     5    20    21    2
     6    21    22    1
     7    22    23    2
     8    23    24    1
     9    24    25    1
    10    25    26    2
    11    26    29    1
    12    29    30    1
    13    29    31    1
    14    29    32    1
    15    26    27    1
    16    27    28    2
    17     2     3   am
    18     3     5    1
    19     5     6    1
    20     6     7    1
    21     9     7    1
    22     9    10    1
    23    10    11    1
    24    11    12    1
    25    12    13    1
    26    12    14    1
    27    14    15    1
    28     7     8    1
    29    28    20    1
    30     8     5    1
    31    28    23    1
    32    15     9    1
    33    18    19    1
    34     3     4    1
    35    13    16    1
@<TRIPOS>MOLECULE
*****
 32 35 0 0 0
SMALL
GASTEIGER

@<TRIPOS>ATOM
      1 O         141.7651  145.6168  163.5572 O.2     1  UNL1       -0.2706
      2 C         141.0167  144.8155  162.5336 C.2     1  UNL1        0.2701
      3 N         140.3172  143.5510  162.9358 N.am    1  UNL1       -0.2999
      4 H         139.8260  143.0251  162.2640 H       1  UNL1        0.1496
      5 C         140.3660  143.0880  164.3617 C.3     1  UNL1        0.1035
      6 C         141.3696  142.3614  165.2072 C.3     1  UNL1        0.0933
      7 N         140.4350  142.4331  166.3783 N.3     1  UNL1       -0.2711
      8 C         139.4314  143.1598  165.5328 C.3     1  UNL1        0.0933
      9 C         140.4839  141.9701  167.8042 C.3     1  UNL1        0.0578
     10 C         140.6001  142.9719  168.9145 C.3     1  UNL1        0.0184
     11 C         140.6489  142.5088  170.3404 C.3     1  UNL1        0.0306
     12 C         140.5816  141.0439  170.6560 C.3     1  UNL1        0.1106
     13 O         140.6304  140.5808  172.0818 O.3     1  UNL1       -0.3845
     14 C         140.4654  140.0421  169.5456 C.3     1  UNL1        0.0306
     15 C         140.4165  140.5052  168.1198 C.3     1  UNL1        0.0184
     16 H         140.5763  139.6127  172.1093 H       1  UNL1        0.2103
     17 C         140.9679  145.2785  161.1077 C.3     1  UNL1        0.2850
     18 N         142.1019  144.9636  160.1775 N.pl3   1  UNL1       -0.2091
     19 H         142.7692  145.6549  159.9631 H       1  UNL1        0.2928
     20 C         142.2190  143.5953  159.5742 C.2     1  UNL1        0.3493
     21 N         141.6560  143.1633  158.2527 N.2     1  UNL1        0.0798
     22 N         142.0089  141.7198  158.0482 N.2     1  UNL1       -0.0381
     23 C         142.7899  141.2597  159.2433 C.2     1  UNL1        0.1169
     24 C         143.3997  139.9350  159.5945 C.3     1  UNL1        0.0759
     25 C         144.1393  139.7695  160.8889 C.2     1  UNL1       -0.0158
     26 C         144.2692  140.9286  161.8321 C.2     1  UNL1        0.0678
     27 C         143.6595  142.2533  161.4808 C.2     1  UNL1        0.0123
     28 C         142.9198  142.4188  160.1864 C.2     1  UNL1        0.1019
     29 C         145.0089  140.7630  163.1265 C.3     1  UNL1        0.4183
     30 F         145.7485  140.5975  164.4209 F       1  UNL1       -0.1659
     31 F         144.2593  139.4912  163.3922 F       1  UNL1       -0.1659
     32 F         145.7584  142.0349  162.8608 F       1  UNL1       -0.1659
@<TRIPOS>BOND
     1     1     2    2
     2     2    17    1
     3    17    18    1
     4    18    20    1
     5    20    21    2
     6    21    22    1
     7    22    23    2
     8    23    24    1
     9    24    25    1
    10    25    26    2
    11    26    29    1
    12    29    30    1
    13    29    31    1
    14    29    32    1
    15    26    27    1
    16    27    28    2
    17     2     3   am
    18     3     5    1
    19     5     6    1
    20     6     7    1
    21     9     7    1
    22     9    10    1
    23    10    11    1
    24    11    12    1
    25    12    13    1
    26    12    14    1
    27    14    15    1
    28     7     8    1
    29    28    20    1
    30     8     5    1
    31    28    23    1
    32    15     9    1
    33    18    19    1
    34     3     4    1
    35    13    16    1
@<TRIPOS>MOLECULE
*****
 32 35 0 0 0
SMALL
GASTEIGER

@<TRIPOS>ATOM
      1 O         140.1362  137.6616  163.3887 O.2     1  UNL1       -0.2706
      2 C         139.8905  138.7479  162.3839 C.2     1  UNL1        0.2701
      3 N         139.7421  140.1698  162.8377 N.am    1  UNL1       -0.2999
      4 H         139.5809  140.8828  162.1783 H       1  UNL1        0.1496
      5 C         139.8393  140.5054  164.2965 C.3     1  UNL1        0.1035
      6 C         140.9496  140.9108  165.2200 C.3     1  UNL1        0.0933
      7 N         139.9766  140.9800  166.3595 N.3     1  UNL1       -0.2711
      8 C         138.8662  140.5746  165.4361 C.3     1  UNL1        0.0933
      9 C         140.0738  141.3156  167.8182 C.3     1  UNL1        0.0578
     10 C         139.8051  140.2606  168.8501 C.3     1  UNL1        0.0184
     11 C         139.9023  140.5962  170.3088 C.3     1  UNL1        0.0306
     12 C         140.2681  141.9869  170.7357 C.3     1  UNL1        0.1106
     13 O         140.3654  142.3226  172.1944 O.3     1  UNL1       -0.3845
     14 C         140.5368  143.0419  169.7038 C.3     1  UNL1        0.0306
     15 C         140.4396  142.7063  168.2451 C.3     1  UNL1        0.0184
     16 H         140.6096  143.2558  172.2958 H       1  UNL1        0.2103
     17 C         139.7934  138.4123  160.9251 C.3     1  UNL1        0.2850
     18 N         141.0321  138.3752  160.0799 N.pl3   1  UNL1       -0.2091
     19 H         141.1846  137.6234  159.4627 H       1  UNL1        0.2928
     20 C         142.0385  139.4834  160.1751 C.2     1  UNL1        0.3493
     21 N         142.2955  140.5327  159.1344 N.2     1  UNL1        0.0798
     22 N         143.3804  141.4347  159.6439 N.2     1  UNL1       -0.0381
     23 C         143.7938  140.9428  160.9993 C.2     1  UNL1        0.1169
     24 C         144.8183  141.4373  161.9770 C.3     1  UNL1        0.0759
     25 C         145.0134  140.7258  163.2829 C.2     1  UNL1       -0.0158
     26 C         144.1841  139.5198  163.6113 C.2     1  UNL1        0.0678
     27 C         143.1596  139.0254  162.6336 C.2     1  UNL1        0.0123
     28 C         142.9644  139.7369  161.3276 C.2     1  UNL1        0.1019
     29 C         144.3792  138.8083  164.9173 C.3     1  UNL1        0.4183
     30 F         144.5743  138.0968  166.2233 F       1  UNL1       -0.1659
     31 F         145.8153  139.2408  164.9384 F       1  UNL1       -0.1659
     32 F         142.9431  138.3758  164.8963 F       1  UNL1       -0.1659
@<TRIPOS>BOND
     1     1     2    2
     2     2    17    1
     3    17    18    1
     4    18    20    1
     5    20    21    2
     6    21    22    1
     7    22    23    2
     8    23    24    1
     9    24    25    1
    10    25    26    2
    11    26    29    1
    12    29    30    1
    13    29    31    1
    14    29    32    1
    15    26    27    1
    16    27    28    2
    17     2     3   am
    18     3     5    1
    19     5     6    1
    20     6     7    1
    21     9     7    1
    22     9    10    1
    23    10    11    1
    24    11    12    1
    25    12    13    1
    26    12    14    1
    27    14    15    1
    28     7     8    1
    29    28    20    1
    30     8     5    1
    31    28    23    1
    32    15     9    1
    33    18    19    1
    34     3     4    1
    35    13    16    1
@<TRIPOS>MOLECULE
*****
 32 35 0 0 0
SMALL
GASTEIGER

@<TRIPOS>ATOM
      1 O         144.3342  143.9769  162.9059 O.2     1  UNL1       -0.2706
      2 C         143.8741  142.8843  161.9870 C.2     1  UNL1        0.2701
      3 N         143.2825  141.6275  162.5533 N.am    1  UNL1       -0.2999
      4 H         142.9805  140.9104  161.9502 H       1  UNL1        0.1496
      5 C         143.1511  141.4635  164.0385 C.3     1  UNL1        0.1035
      6 C         143.6746  140.4855  165.0481 C.3     1  UNL1        0.0933
      7 N         142.9651  141.2317  166.1389 N.3     1  UNL1       -0.2711
      8 C         142.4416  142.2098  165.1293 C.3     1  UNL1        0.0933
      9 C         142.8337  141.0676  167.6241 C.3     1  UNL1        0.0578
     10 C         143.0535  142.2422  168.5308 C.3     1  UNL1        0.0184
     11 C         142.9221  142.0782  170.0160 C.3     1  UNL1        0.0306
     12 C         142.5708  140.7396  170.5945 C.3     1  UNL1        0.1106
     13 O         142.4394  140.5755  172.0796 O.3     1  UNL1       -0.3845
     14 C         142.3511  139.5650  169.6878 C.3     1  UNL1        0.0306
     15 C         142.4825  139.7290  168.2027 C.3     1  UNL1        0.0184
     16 H         142.2101  139.6554  172.2842 H       1  UNL1        0.2103
     17 C         144.0055  143.0483  160.5018 C.3     1  UNL1        0.2850
     18 N         142.9110  143.7136  159.7209 N.pl3   1  UNL1       -0.2091
     19 H         143.0828  144.5675  159.2621 H       1  UNL1        0.2928
     20 C         141.5549  143.0777  159.6391 C.2     1  UNL1        0.3493
     21 N         141.0574  142.2020  158.5276 N.2     1  UNL1        0.0798
     22 N         139.6533  141.7890  158.8560 N.2     1  UNL1       -0.0381
     23 C         139.2830  142.4095  160.1705 C.2     1  UNL1        0.1169
     24 C         138.0275  142.3522  160.9893 C.3     1  UNL1        0.0759
     25 C         137.9474  143.0913  162.2921 C.2     1  UNL1       -0.0158
     26 C         139.1227  143.8877  162.7761 C.2     1  UNL1        0.0678
     27 C         140.3782  143.9451  161.9573 C.2     1  UNL1        0.0123
     28 C         140.4583  143.2060  160.6545 C.2     1  UNL1        0.1019
     29 C         139.0425  144.6269  164.0789 C.3     1  UNL1        0.4183
     30 F         138.9623  145.3660  165.3817 F       1  UNL1       -0.1659
     31 F         138.1312  143.5675  164.6239 F       1  UNL1       -0.1659
     32 F         139.9538  145.6863  163.5339 F       1  UNL1       -0.1659
@<TRIPOS>BOND
     1     1     2    2
     2     2    17    1
     3    17    18    1
     4    18    20    1
     5    20    21    2
     6    21    22    1
     7    22    23    2
     8    23    24    1
     9    24    25    1
    10    25    26    2
    11    26    29    1
    12    29    30    1
    13    29    31    1
    14    29    32    1
    15    26    27    1
    16    27    28    2
    17     2     3   am
    18     3     5    1
    19     5     6    1
    20     6     7    1
    21     9     7    1
    22     9    10    1
    23    10    11    1
    24    11    12    1
    25    12    13    1
    26    12    14    1
    27    14    15    1
    28     7     8    1
    29    28    20    1
    30     8     5    1
    31    28    23    1
    32    15     9    1
    33    18    19    1
    34     3     4    1
    35    13    16    1
@<TRIPOS>MOLECULE
*****
 32 35 0 0 0
SMALL
GASTEIGER

@<TRIPOS>ATOM
      1 O         140.4302  143.0437  161.5928 O.2     1  UNL1       -0.2706
      2 C         140.9460  144.4448  161.7367 C.2     1  UNL1        0.2701
      3 N         141.1872  145.0188  163.1014 N.am    1  UNL1       -0.2999
      4 H         141.5257  145.9385  163.1958 H       1  UNL1        0.1496
      5 C         140.9126  144.1916  164.3221 C.3     1  UNL1        0.1035
      6 C         141.6689  143.1464  165.0872 C.3     1  UNL1        0.0933
      7 N         140.5243  143.0217  166.0486 N.3     1  UNL1       -0.2711
      8 C         139.7679  144.0670  165.2835 C.3     1  UNL1        0.0933
      9 C         140.2497  142.1945  167.2694 C.3     1  UNL1        0.0578
     10 C         140.4584  142.7799  168.6346 C.3     1  UNL1        0.0184
     11 C         140.1839  141.9526  169.8553 C.3     1  UNL1        0.0306
     12 C         139.7006  140.5400  169.7109 C.3     1  UNL1        0.1106
     13 O         139.4261  139.7126  170.9316 O.3     1  UNL1       -0.3845
     14 C         139.4919  139.9546  168.3457 C.3     1  UNL1        0.0306
     15 C         139.7665  140.7818  167.1250 C.3     1  UNL1        0.0184
     16 H         139.1233  138.8310  170.6633 H       1  UNL1        0.2103
     17 C         141.2205  145.2721  160.5159 C.3     1  UNL1        0.2850
     18 N         141.7780  144.6263  159.2821 N.pl3   1  UNL1       -0.2091
     19 H         142.7523  144.5748  159.1508 H       1  UNL1        0.2928
     20 C         140.8509  144.0589  158.2484 C.2     1  UNL1        0.3493
     21 N         140.5656  142.6035  158.0236 N.2     1  UNL1        0.0798
     22 N         139.5847  142.4925  156.8943 N.2     1  UNL1       -0.0381
     23 C         139.2637  143.8792  156.4211 C.2     1  UNL1        0.1169
     24 C         138.3599  144.3854  155.3362 C.3     1  UNL1        0.0759
     25 C         138.2387  145.8598  155.0883 C.2     1  UNL1       -0.0158
     26 C         139.0212  146.8279  155.9252 C.2     1  UNL1        0.0678
     27 C         139.9250  146.3217  157.0100 C.2     1  UNL1        0.0123
     28 C         140.0462  144.8473  157.2579 C.2     1  UNL1        0.1019
     29 C         138.9000  148.3023  155.6772 C.3     1  UNL1        0.4183
     30 F         138.7787  149.7767  155.4292 F       1  UNL1       -0.1659
     31 F         138.4510  148.5038  157.0942 F       1  UNL1       -0.1659
     32 F         139.3490  148.1009  154.2603 F       1  UNL1       -0.1659
@<TRIPOS>BOND
     1     1     2    2
     2     2    17    1
     3    17    18    1
     4    18    20    1
     5    20    21    2
     6    21    22    1
     7    22    23    2
     8    23    24    1
     9    24    25    1
    10    25    26    2
    11    26    29    1
    12    29    30    1
    13    29    31    1
    14    29    32    1
    15    26    27    1
    16    27    28    2
    17     2     3   am
    18     3     5    1
    19     5     6    1
    20     6     7    1
    21     9     7    1
    22     9    10    1
    23    10    11    1
    24    11    12    1
    25    12    13    1
    26    12    14    1
    27    14    15    1
    28     7     8    1
    29    28    20    1
    30     8     5    1
    31    28    23    1
    32    15     9    1
    33    18    19    1
    34     3     4    1
    35    13    16    1
