@<TRIPOS>MOLECULE
*****
 27 30 0 0 0
SMALL
GASTEIGER

@<TRIPOS>ATOM
      1 C         140.8428  142.0401  167.2577 C.3     1  UNL1        0.0546
      2 C         142.2098  141.4236  167.2953 C.3     1  UNL1        0.0271
      3 C         143.1243  141.6973  168.4523 C.3     1  UNL1        0.0587
      4 C         143.6696  142.2263  169.7457 C.3     1  UNL1        0.0174
      5 C         142.6192  143.0961  170.3703 C.3     1  UNL1        0.0174
      6 C         141.4247  143.1047  169.4629 C.3     1  UNL1        0.0587
      7 C         140.3904  142.9302  168.3772 C.3     1  UNL1        0.0271
      8 N         141.7369  142.2402  168.2776 N.3     1  UNL1       -0.2715
      9 S         139.9282  141.7665  166.1007 S.3     1  UNL1       -0.1144
     10 C         139.3560  138.3091  164.2383 C.ar    1  UNL1        0.0536
     11 C         138.5542  137.5639  165.2638 C.ar    1  UNL1        0.0045
     12 C         138.2103  138.2197  166.5683 C.ar    1  UNL1        0.0006
     13 C         138.6683  139.6205  166.8473 C.ar    1  UNL1        0.0062
     14 C         139.4702  140.3656  165.8217 C.ar    1  UNL1        0.0253
     15 C         139.8140  139.7099  164.5172 C.ar    1  UNL1        0.0106
     16 N         138.7327  137.7087  161.7886 N.am    1  UNL1       -0.3253
     17 C         139.6999  137.6533  162.9338 C.2     1  UNL1        0.2428
     18 O         141.0110  136.9421  162.7744 O.2     1  UNL1       -0.2704
     19 H         138.9584  137.2783  160.9324 H       1  UNL1        0.1453
     20 H         137.8722  138.1754  161.8931 H       1  UNL1        0.1453
     21 C         140.8224  141.9665  167.1205 C.3     1  UNL1        0.0991
     22 C         140.6624  142.9874  166.0332 C.ar    1  UNL1       -0.0061
     23 C         139.3979  143.7885  165.9368 C.ar    1  UNL1       -0.0029
     24 C         139.2379  144.8093  164.8496 C.ar    1  UNL1       -0.0003
     25 C         140.3423  145.0290  163.8586 C.ar    1  UNL1       -0.0000
     26 C         141.6068  144.2278  163.9550 C.ar    1  UNL1       -0.0003
     27 C         141.7668  143.2070  165.0423 C.ar    1  UNL1       -0.0029
@<TRIPOS>BOND
     1    16    17   am
     2    17    18    2
     3    17    10    1
     4    10    11   ar
     5    11    12   ar
     6    12    13   ar
     7    13    14   ar
     8    14     9    1
     9     1     9    1
    10     1     2    1
    11     3     2    1
    12     3     4    1
    13     4     5    1
    14     6     5    1
    15     6     7    1
    16     6     8    1
    17     8    21    1
    18    21    22    1
    19    22    23   ar
    20    23    24   ar
    21    24    25   ar
    22    25    26   ar
    23    26    27   ar
    24    14    15   ar
    25    15    10   ar
    26     7     1    1
    27    27    22   ar
    28     8     3    1
    29    16    19    1
    30    16    20    1
@<TRIPOS>MOLECULE
*****
 27 30 0 0 0
SMALL
GASTEIGER

@<TRIPOS>ATOM
      1 C         141.5813  142.3324  165.8586 C.3     1  UNL1        0.0546
      2 C         140.4766  143.1948  165.3238 C.3     1  UNL1        0.0271
      3 C         140.7909  144.3137  164.3754 C.3     1  UNL1        0.0587
      4 C         141.5399  145.2697  163.4951 C.3     1  UNL1        0.0174
      5 C         142.9968  144.9197  163.5650 C.3     1  UNL1        0.0174
      6 C         143.1482  143.7475  164.4886 C.3     1  UNL1        0.0587
      7 C         143.0001  142.5888  165.4449 C.3     1  UNL1        0.0271
      8 N         141.7849  143.3729  164.9895 N.3     1  UNL1       -0.2715
      9 S         141.2671  141.2135  166.8070 S.3     1  UNL1       -0.1144
     10 C         139.5241  138.3336  164.7051 C.ar    1  UNL1        0.0536
     11 C         138.3713  137.9874  165.6002 C.ar    1  UNL1        0.0045
     12 C         138.1838  138.7166  166.8975 C.ar    1  UNL1        0.0006
     13 C         139.1490  139.7919  167.2998 C.ar    1  UNL1        0.0062
     14 C         140.3018  140.1381  166.4047 C.ar    1  UNL1        0.0253
     15 C         140.4894  139.4090  165.1074 C.ar    1  UNL1        0.0106
     16 N         138.5995  137.5653  162.4019 N.am    1  UNL1       -0.3253
     17 C         139.7116  137.6044  163.4078 C.2     1  UNL1        0.2428
     18 O         141.0112  136.9143  163.1163 O.2     1  UNL1       -0.2704
     19 H         138.7226  137.0867  161.5504 H       1  UNL1        0.1453
     20 H         137.7466  138.0182  162.5931 H       1  UNL1        0.1453
     21 C         141.4706  142.2541  165.9378 C.3     1  UNL1        0.0991
     22 C         141.7191  142.4244  167.4073 C.ar    1  UNL1       -0.0061
     23 C         140.6630  143.0338  168.2809 C.ar    1  UNL1       -0.0029
     24 C         140.9114  143.2040  169.7503 C.ar    1  UNL1       -0.0003
     25 C         142.2161  142.7649  170.3461 C.ar    1  UNL1       -0.0000
     26 C         143.2723  142.1554  169.4725 C.ar    1  UNL1       -0.0003
     27 C         143.0237  141.9852  168.0031 C.ar    1  UNL1       -0.0029
@<TRIPOS>BOND
     1    16    17   am
     2    17    18    2
     3    17    10    1
     4    10    11   ar
     5    11    12   ar
     6    12    13   ar
     7    13    14   ar
     8    14     9    1
     9     1     9    1
    10     1     2    1
    11     3     2    1
    12     3     4    1
    13     4     5    1
    14     6     5    1
    15     6     7    1
    16     6     8    1
    17     8    21    1
    18    21    22    1
    19    22    23   ar
    20    23    24   ar
    21    24    25   ar
    22    25    26   ar
    23    26    27   ar
    24    14    15   ar
    25    15    10   ar
    26     7     1    1
    27    27    22   ar
    28     8     3    1
    29    16    19    1
    30    16    20    1
@<TRIPOS>MOLECULE
*****
 27 30 0 0 0
SMALL
GASTEIGER

@<TRIPOS>ATOM
      1 C         139.3540  141.2291  165.3150 C.3     1  UNL1        0.0546
      2 C         140.2514  142.4086  165.5457 C.3     1  UNL1        0.0271
      3 C         139.8430  143.7680  165.0607 C.3     1  UNL1        0.0587
      4 C         139.0614  144.8825  164.4306 C.3     1  UNL1        0.0174
      5 C         137.7893  144.3053  163.8842 C.3     1  UNL1        0.0174
      6 C         137.7846  142.8341  164.1766 C.3     1  UNL1        0.0587
      7 C         138.0480  141.4090  164.5993 C.3     1  UNL1        0.0271
      8 N         139.0539  142.5020  164.9037 N.3     1  UNL1       -0.2715
      9 S         139.7624  139.8696  165.8000 S.3     1  UNL1       -0.1144
     10 C         140.8990  139.8550  169.6023 C.ar    1  UNL1        0.0536
     11 C         142.3422  139.4698  169.4653 C.ar    1  UNL1        0.0045
     12 C         142.9254  139.2178  168.1065 C.ar    1  UNL1        0.0006
     13 C         142.0655  139.3511  166.8848 C.ar    1  UNL1        0.0062
     14 C         140.6223  139.7364  167.0218 C.ar    1  UNL1        0.0253
     15 C         140.0391  139.9883  168.3805 C.ar    1  UNL1        0.0106
     16 N         139.4787  139.0541  171.6250 N.am    1  UNL1       -0.3253
     17 C         140.3158  140.1070  170.9611 C.2     1  UNL1        0.2428
     18 O         140.5697  141.4119  171.6561 O.2     1  UNL1       -0.2704
     19 H         139.0959  139.2195  172.5168 H       1  UNL1        0.1453
     20 H         139.3121  138.1977  171.1689 H       1  UNL1        0.1453
     21 C         139.4623  141.1427  165.3887 C.3     1  UNL1        0.0991
     22 C         139.6415  140.0198  164.4104 C.ar    1  UNL1       -0.0061
     23 C         140.7216  140.0948  163.3722 C.ar    1  UNL1       -0.0029
     24 C         140.9008  138.9721  162.3939 C.ar    1  UNL1       -0.0003
     25 C         139.9999  137.7742  162.4537 C.ar    1  UNL1       -0.0000
     26 C         138.9198  137.6991  163.4920 C.ar    1  UNL1       -0.0003
     27 C         138.7407  138.8220  164.4703 C.ar    1  UNL1       -0.0029
@<TRIPOS>BOND
     1    16    17   am
     2    17    18    2
     3    17    10    1
     4    10    11   ar
     5    11    12   ar
     6    12    13   ar
     7    13    14   ar
     8    14     9    1
     9     1     9    1
    10     1     2    1
    11     3     2    1
    12     3     4    1
    13     4     5    1
    14     6     5    1
    15     6     7    1
    16     6     8    1
    17     8    21    1
    18    21    22    1
    19    22    23   ar
    20    23    24   ar
    21    24    25   ar
    22    25    26   ar
    23    26    27   ar
    24    14    15   ar
    25    15    10   ar
    26     7     1    1
    27    27    22   ar
    28     8     3    1
    29    16    19    1
    30    16    20    1
@<TRIPOS>MOLECULE
*****
 27 30 0 0 0
SMALL
GASTEIGER

@<TRIPOS>ATOM
      1 C         142.0065  142.0655  164.7554 C.3     1  UNL1        0.0546
      2 C         143.2442  142.7283  165.2832 C.3     1  UNL1        0.0271
      3 C         144.5811  142.4058  164.6842 C.3     1  UNL1        0.0587
      4 C         145.6495  141.8052  163.8195 C.3     1  UNL1        0.0174
      5 C         144.9921  140.8536  162.8643 C.3     1  UNL1        0.0174
      6 C         143.5174  140.8662  163.1387 C.3     1  UNL1        0.0587
      7 C         142.1056  141.0802  163.6287 C.3     1  UNL1        0.0271
      8 N         143.2635  141.8256  164.2635 N.3     1  UNL1       -0.2715
      9 S         140.6695  142.3879  165.3543 S.3     1  UNL1       -0.1144
     10 C         140.0673  142.1463  169.2695 C.ar    1  UNL1        0.0536
     11 C         139.5566  140.7413  169.3916 C.ar    1  UNL1        0.0045
     12 C         139.4169  139.8851  168.1679 C.ar    1  UNL1        0.0006
     13 C         139.7879  140.4339  166.8222 C.ar    1  UNL1        0.0062
     14 C         140.2985  141.8390  166.7001 C.ar    1  UNL1        0.0253
     15 C         140.4382  142.6952  167.9237 C.ar    1  UNL1        0.0106
     16 N         140.1428  144.4965  170.3746 N.am    1  UNL1       -0.3253
     17 C         140.2070  143.0025  170.4932 C.2     1  UNL1        0.2428
     18 O         140.4108  142.3648  171.8355 O.2     1  UNL1       -0.2704
     19 H         140.2345  145.0584  171.1777 H       1  UNL1        0.1453
     20 H         140.0090  144.9151  169.4936 H       1  UNL1        0.1453
     21 C         141.9266  142.1480  164.8624 C.3     1  UNL1        0.0991
     22 C         140.9383  142.9718  164.0913 C.ar    1  UNL1       -0.0061
     23 C         141.1006  144.4611  164.0153 C.ar    1  UNL1       -0.0029
     24 C         140.1124  145.2848  163.2442 C.ar    1  UNL1       -0.0003
     25 C         138.9617  144.6194  162.5491 C.ar    1  UNL1       -0.0000
     26 C         138.7994  143.1301  162.6251 C.ar    1  UNL1       -0.0003
     27 C         139.7877  142.3064  163.3962 C.ar    1  UNL1       -0.0029
@<TRIPOS>BOND
     1    16    17   am
     2    17    18    2
     3    17    10    1
     4    10    11   ar
     5    11    12   ar
     6    12    13   ar
     7    13    14   ar
     8    14     9    1
     9     1     9    1
    10     1     2    1
    11     3     2    1
    12     3     4    1
    13     4     5    1
    14     6     5    1
    15     6     7    1
    16     6     8    1
    17     8    21    1
    18    21    22    1
    19    22    23   ar
    20    23    24   ar
    21    24    25   ar
    22    25    26   ar
    23    26    27   ar
    24    14    15   ar
    25    15    10   ar
    26     7     1    1
    27    27    22   ar
    28     8     3    1
    29    16    19    1
    30    16    20    1
@<TRIPOS>MOLECULE
*****
 27 30 0 0 0
SMALL
GASTEIGER

@<TRIPOS>ATOM
      1 C         140.2349  141.8223  165.9493 C.3     1  UNL1        0.0546
      2 C         139.3196  140.9171  165.1795 C.3     1  UNL1        0.0271
      3 C         138.2425  141.4999  164.3134 C.3     1  UNL1        0.0587
      4 C         137.3526  142.4813  163.6098 C.3     1  UNL1        0.0174
      5 C         137.7877  143.8631  163.9987 C.3     1  UNL1        0.0174
      6 C         138.9465  143.7358  164.9426 C.3     1  UNL1        0.0587
      7 C         140.0732  143.3105  165.8530 C.3     1  UNL1        0.0271
      8 N         139.2276  142.2753  165.1371 N.3     1  UNL1       -0.2715
      9 S         141.3121  141.2395  166.8155 S.3     1  UNL1       -0.1144
     10 C         144.3330  140.3012  164.4190 C.ar    1  UNL1        0.0536
     11 C         144.7063  138.9488  164.9497 C.ar    1  UNL1        0.0045
     12 C         143.9482  138.3600  166.1023 C.ar    1  UNL1        0.0006
     13 C         142.8168  139.1235  166.7242 C.ar    1  UNL1        0.0062
     14 C         142.4435  140.4759  166.1936 C.ar    1  UNL1        0.0253
     15 C         143.2015  141.0648  165.0410 C.ar    1  UNL1        0.0106
     16 N         146.2209  141.8435  163.5205 N.am    1  UNL1       -0.3253
     17 C         145.0911  140.8901  163.2664 C.2     1  UNL1        0.2428
     18 O         144.7194  140.5255  161.8596 O.2     1  UNL1       -0.2704
     19 H         146.7185  142.2300  162.7640 H       1  UNL1        0.1453
     20 H         146.4649  142.0828  164.4438 H       1  UNL1        0.1453
     21 C         140.3047  141.6924  166.0032 C.3     1  UNL1        0.0991
     22 C         140.1599  141.7129  167.4961 C.ar    1  UNL1       -0.0061
     23 C         139.5476  140.5422  168.2064 C.ar    1  UNL1       -0.0029
     24 C         139.4027  140.5627  169.6991 C.ar    1  UNL1       -0.0003
     25 C         139.8702  141.7539  170.4817 C.ar    1  UNL1       -0.0000
     26 C         140.4825  142.9247  169.7715 C.ar    1  UNL1       -0.0003
     27 C         140.6273  142.9041  168.2786 C.ar    1  UNL1       -0.0029
@<TRIPOS>BOND
     1    16    17   am
     2    17    18    2
     3    17    10    1
     4    10    11   ar
     5    11    12   ar
     6    12    13   ar
     7    13    14   ar
     8    14     9    1
     9     1     9    1
    10     1     2    1
    11     3     2    1
    12     3     4    1
    13     4     5    1
    14     6     5    1
    15     6     7    1
    16     6     8    1
    17     8    21    1
    18    21    22    1
    19    22    23   ar
    20    23    24   ar
    21    24    25   ar
    22    25    26   ar
    23    26    27   ar
    24    14    15   ar
    25    15    10   ar
    26     7     1    1
    27    27    22   ar
    28     8     3    1
    29    16    19    1
    30    16    20    1
@<TRIPOS>MOLECULE
*****
 27 30 0 0 0
SMALL
GASTEIGER

@<TRIPOS>ATOM
      1 C         140.4730  141.6565  166.6122 C.3     1  UNL1        0.0546
      2 C         139.8664  140.3503  167.0316 C.3     1  UNL1        0.0271
      3 C         139.4726  140.1313  168.4623 C.3     1  UNL1        0.0587
      4 C         139.2442  140.3500  169.9286 C.3     1  UNL1        0.0174
      5 C         139.7173  141.7318  170.2703 C.3     1  UNL1        0.0174
      6 C         140.2380  142.3671  169.0153 C.3     1  UNL1        0.0587
      7 C         140.6858  142.7437  167.6236 C.3     1  UNL1        0.0271
      8 N         140.0868  141.3779  167.8978 N.3     1  UNL1       -0.2715
      9 S         140.8669  141.8755  165.1815 S.3     1  UNL1       -0.1144
     10 C         143.1937  139.3295  163.2184 C.ar    1  UNL1        0.0536
     11 C         144.5508  139.8860  163.5321 C.ar    1  UNL1        0.0045
     12 C         144.6799  141.1057  164.3956 C.ar    1  UNL1        0.0006
     13 C         143.4520  141.7688  164.9454 C.ar    1  UNL1        0.0062
     14 C         142.0949  141.2123  164.6317 C.ar    1  UNL1        0.0253
     15 C         141.9657  139.9927  163.7682 C.ar    1  UNL1        0.0106
     16 N         141.8206  137.2739  162.4187 N.am    1  UNL1       -0.3253
     17 C         143.0645  138.1098  162.3549 C.2     1  UNL1        0.2428
     18 O         144.1794  137.7259  161.4276 O.2     1  UNL1       -0.2704
     19 H         141.7359  136.4734  161.8520 H       1  UNL1        0.1453
     20 H         141.0889  137.5259  163.0273 H       1  UNL1        0.1453
     21 C         140.4806  141.5969  166.4671 C.3     1  UNL1        0.0991
     22 C         139.6073  142.4188  165.5662 C.ar    1  UNL1       -0.0061
     23 C         139.8595  143.8897  165.4148 C.ar    1  UNL1       -0.0029
     24 C         138.9862  144.7116  164.5139 C.ar    1  UNL1       -0.0003
     25 C         137.8606  144.0626  163.7643 C.ar    1  UNL1       -0.0000
     26 C         137.6084  142.5917  163.9156 C.ar    1  UNL1       -0.0003
     27 C         138.4818  141.7698  164.8166 C.ar    1  UNL1       -0.0029
@<TRIPOS>BOND
     1    16    17   am
     2    17    18    2
     3    17    10    1
     4    10    11   ar
     5    11    12   ar
     6    12    13   ar
     7    13    14   ar
     8    14     9    1
     9     1     9    1
    10     1     2    1
    11     3     2    1
    12     3     4    1
    13     4     5    1
    14     6     5    1
    15     6     7    1
    16     6     8    1
    17     8    21    1
    18    21    22    1
    19    22    23   ar
    20    23    24   ar
    21    24    25   ar
    22    25    26   ar
    23    26    27   ar
    24    14    15   ar
    25    15    10   ar
    26     7     1    1
    27    27    22   ar
    28     8     3    1
    29    16    19    1
    30    16    20    1
@<TRIPOS>MOLECULE
*****
 27 30 0 0 0
SMALL
GASTEIGER

@<TRIPOS>ATOM
      1 C         140.0846  140.8309  165.1371 C.3     1  UNL1        0.0546
      2 C         139.0417  139.8309  165.5398 C.3     1  UNL1        0.0271
      3 C         138.8238  138.5996  164.7114 C.3     1  UNL1        0.0587
      4 C         138.9498  137.5656  163.6320 C.3     1  UNL1        0.0174
      5 C         140.0283  138.0094  162.6887 C.3     1  UNL1        0.0174
      6 C         140.5689  139.3176  163.1851 C.3     1  UNL1        0.0587
      7 C         140.9097  140.5996  163.9059 C.3     1  UNL1        0.0271
      8 N         139.8244  139.6824  164.4352 N.3     1  UNL1       -0.2715
      9 S         140.3025  142.0624  165.9655 S.3     1  UNL1       -0.1144
     10 C         141.2130  141.5062  169.7880 C.ar    1  UNL1        0.0536
     11 C         142.6803  141.8175  169.7781 C.ar    1  UNL1        0.0045
     12 C         143.3550  142.2103  168.4973 C.ar    1  UNL1        0.0006
     13 C         142.5625  142.2920  167.2265 C.ar    1  UNL1        0.0062
     14 C         141.0952  141.9807  167.2364 C.ar    1  UNL1        0.0253
     15 C         140.4204  141.5879  168.5171 C.ar    1  UNL1        0.0106
     16 N         139.9945  139.7253  171.2349 N.am    1  UNL1       -0.3253
     17 C         140.5383  141.1133  171.0687 C.2     1  UNL1        0.2428
     18 O         140.4074  142.1086  172.1835 O.2     1  UNL1       -0.2704
     19 H         139.5517  139.4674  172.0755 H       1  UNL1        0.1453
     20 H         140.0804  139.0721  170.5033 H       1  UNL1        0.1453
     21 C         140.0423  140.9138  165.2636 C.3     1  UNL1        0.0991
     22 C         139.6646  142.2599  164.7201 C.ar    1  UNL1       -0.0061
     23 C         140.7283  143.1930  164.2221 C.ar    1  UNL1       -0.0029
     24 C         140.3506  144.5390  163.6786 C.ar    1  UNL1       -0.0003
     25 C         138.9094  144.9521  163.6331 C.ar    1  UNL1       -0.0000
     26 C         137.8456  144.0190  164.1312 C.ar    1  UNL1       -0.0003
     27 C         138.2234  142.6729  164.6746 C.ar    1  UNL1       -0.0029
@<TRIPOS>BOND
     1    16    17   am
     2    17    18    2
     3    17    10    1
     4    10    11   ar
     5    11    12   ar
     6    12    13   ar
     7    13    14   ar
     8    14     9    1
     9     1     9    1
    10     1     2    1
    11     3     2    1
    12     3     4    1
    13     4     5    1
    14     6     5    1
    15     6     7    1
    16     6     8    1
    17     8    21    1
    18    21    22    1
    19    22    23   ar
    20    23    24   ar
    21    24    25   ar
    22    25    26   ar
    23    26    27   ar
    24    14    15   ar
    25    15    10   ar
    26     7     1    1
    27    27    22   ar
    28     8     3    1
    29    16    19    1
    30    16    20    1
@<TRIPOS>MOLECULE
*****
 27 30 0 0 0
SMALL
GASTEIGER

@<TRIPOS>ATOM
      1 C         140.9447  140.8810  167.4631 C.3     1  UNL1        0.0546
      2 C         140.3376  141.5867  168.6392 C.3     1  UNL1        0.0271
      3 C         140.9126  141.3899  170.0106 C.3     1  UNL1        0.0587
      4 C         141.7786  140.9159  171.1399 C.3     1  UNL1        0.0174
      5 C         142.8115  139.9873  170.5736 C.3     1  UNL1        0.0174
      6 C         142.5839  139.8874  169.0943 C.3     1  UNL1        0.0587
      7 C         142.1268  139.9783  167.6584 C.3     1  UNL1        0.0271
      8 N         141.4103  140.7544  168.7464 N.3     1  UNL1       -0.2715
      9 S         140.3698  141.0777  166.0917 S.3     1  UNL1       -0.1144
     10 C         142.2097  143.8552  163.9353 C.ar    1  UNL1        0.0536
     11 C         141.1423  144.9060  163.8562 C.ar    1  UNL1        0.0045
     12 C         139.8173  144.6807  164.5223 C.ar    1  UNL1        0.0006
     13 C         139.5598  143.4047  165.2674 C.ar    1  UNL1        0.0062
     14 C         140.6273  142.3538  165.3465 C.ar    1  UNL1        0.0253
     15 C         141.9522  142.5791  164.6805 C.ar    1  UNL1        0.0106
     16 N         143.8890  145.4405  162.7448 N.am    1  UNL1       -0.3253
     17 C         143.5347  144.0805  163.2692 C.2     1  UNL1        0.2428
     18 O         144.5055  142.9457  163.1275 O.2     1  UNL1       -0.2704
     19 H         144.7586  145.5883  162.3077 H       1  UNL1        0.1453
     20 H         143.2518  146.1852  162.8379 H       1  UNL1        0.1453
     21 C         140.8354  140.9512  167.3750 C.3     1  UNL1        0.0991
     22 C         140.1277  139.8204  166.6890 C.ar    1  UNL1       -0.0061
     23 C         140.8164  139.0572  165.5966 C.ar    1  UNL1       -0.0029
     24 C         140.1088  137.9265  164.9107 C.ar    1  UNL1       -0.0003
     25 C         138.7125  137.5588  165.3171 C.ar    1  UNL1       -0.0000
     26 C         138.0238  138.3220  166.4096 C.ar    1  UNL1       -0.0003
     27 C         138.7315  139.4527  167.0955 C.ar    1  UNL1       -0.0029
@<TRIPOS>BOND
     1    16    17   am
     2    17    18    2
     3    17    10    1
     4    10    11   ar
     5    11    12   ar
     6    12    13   ar
     7    13    14   ar
     8    14     9    1
     9     1     9    1
    10     1     2    1
    11     3     2    1
    12     3     4    1
    13     4     5    1
    14     6     5    1
    15     6     7    1
    16     6     8    1
    17     8    21    1
    18    21    22    1
    19    22    23   ar
    20    23    24   ar
    21    24    25   ar
    22    25    26   ar
    23    26    27   ar
    24    14    15   ar
    25    15    10   ar
    26     7     1    1
    27    27    22   ar
    28     8     3    1
    29    16    19    1
    30    16    20    1
@<TRIPOS>MOLECULE
*****
 27 30 0 0 0
SMALL
GASTEIGER

@<TRIPOS>ATOM
      1 C         142.4013  141.5291  165.8749 C.3     1  UNL1        0.0546
      2 C         143.3539  142.5646  165.3549 C.3     1  UNL1        0.0271
      3 C         144.5746  142.1444  164.5911 C.3     1  UNL1        0.0587
      4 C         145.6134  141.3004  163.9141 C.3     1  UNL1        0.0174
      5 C         145.2182  139.8622  164.0736 C.3     1  UNL1        0.0174
      6 C         143.9351  139.8174  164.8492 C.3     1  UNL1        0.0587
      7 C         142.6693  140.0735  165.6311 C.3     1  UNL1        0.0271
      8 N         143.5373  141.2278  165.1691 N.3     1  UNL1       -0.2715
      9 S         141.1805  141.9493  166.6386 S.3     1  UNL1       -0.1144
     10 C         138.3067  142.8764  164.0635 C.ar    1  UNL1        0.0536
     11 C         137.9035  144.2316  164.5643 C.ar    1  UNL1        0.0045
     12 C         138.5927  144.8260  165.7567 C.ar    1  UNL1        0.0006
     13 C         139.6850  144.0653  166.4481 C.ar    1  UNL1        0.0062
     14 C         140.0881  142.7101  165.9472 C.ar    1  UNL1        0.0253
     15 C         139.3990  142.1156  164.7549 C.ar    1  UNL1        0.0106
     16 N         136.9205  140.9590  162.9900 N.am    1  UNL1       -0.3253
     17 C         137.6175  142.2819  162.8711 C.2     1  UNL1        0.2428
     18 O         137.6253  143.0105  161.5599 O.2     1  UNL1       -0.2704
     19 H         136.4682  140.5689  162.2074 H       1  UNL1        0.1453
     20 H         136.9154  140.4808  163.8505 H       1  UNL1        0.1453
     21 C         142.3166  141.6480  165.9328 C.3     1  UNL1        0.0991
     22 C         142.2219  141.3751  167.4048 C.ar    1  UNL1       -0.0061
     23 C         141.3729  140.2442  167.9048 C.ar    1  UNL1       -0.0029
     24 C         141.2783  139.9713  169.3767 C.ar    1  UNL1       -0.0003
     25 C         142.0326  140.8293  170.3486 C.ar    1  UNL1       -0.0000
     26 C         142.8817  141.9604  169.8486 C.ar    1  UNL1       -0.0003
     27 C         142.9763  142.2332  168.3766 C.ar    1  UNL1       -0.0029
@<TRIPOS>BOND
     1    16    17   am
     2    17    18    2
     3    17    10    1
     4    10    11   ar
     5    11    12   ar
     6    12    13   ar
     7    13    14   ar
     8    14     9    1
     9     1     9    1
    10     1     2    1
    11     3     2    1
    12     3     4    1
    13     4     5    1
    14     6     5    1
    15     6     7    1
    16     6     8    1
    17     8    21    1
    18    21    22    1
    19    22    23   ar
    20    23    24   ar
    21    24    25   ar
    22    25    26   ar
    23    26    27   ar
    24    14    15   ar
    25    15    10   ar
    26     7     1    1
    27    27    22   ar
    28     8     3    1
    29    16    19    1
    30    16    20    1
