@<TRIPOS>MOLECULE
*****
 28 31 0 0 0
SMALL
GASTEIGER

@<TRIPOS>ATOM
      1 C         141.9317  143.7627  161.2981 C.2     1  UNL1        0.1518
      2 N         143.2777  144.3063  161.6759 N.2     1  UNL1       -0.1775
      3 C         141.2357  142.7885  162.2017 C.ar    1  UNL1        0.0237
      4 C         140.3229  143.2879  163.2821 C.ar    1  UNL1        0.0030
      5 C         139.6269  142.3137  164.1857 C.ar    1  UNL1        0.0184
      6 C         139.8438  140.8401  164.0089 C.ar    1  UNL1        0.1056
      7 C         140.7567  140.3406  162.9286 C.ar    1  UNL1        0.0184
      8 C         141.4526  141.3148  162.0250 C.ar    1  UNL1        0.0030
      9 S         139.1478  139.8658  164.9126 S.O2    1  UNL1        0.0070
     10 O         140.4022  139.7206  165.7221 O.2     1  UNL1       -0.1687
     11 O         137.8934  140.0110  164.1031 O.2     1  UNL1       -0.1687
     12 C         138.4519  138.8917  165.8162 C.3     1  UNL1        0.1339
     13 C         137.6740  138.6072  167.0668 C.3     1  UNL1        0.0257
     14 C         138.0244  137.4887  166.1308 C.3     1  UNL1        0.0257
     15 N         143.9277  143.8757  162.9574 N.pl3   1  UNL1       -0.2327
     16 C         143.8377  144.5880  164.2744 C.3     1  UNL1        0.1110
     17 C         144.6362  143.8098  165.2778 C.3     1  UNL1        0.0250
     18 C         145.2197  142.6164  164.5809 C.3     1  UNL1        0.0250
     19 C         144.7818  142.6573  163.1468 C.3     1  UNL1        0.1110
     20 O         140.0232  143.5225  159.5517 O.2     1  UNL1       -0.2681
     21 C         141.2818  144.1932  160.0166 C.2     1  UNL1        0.2702
     22 N         141.8903  145.2946  159.2000 N.am    1  UNL1       -0.2582
     23 H         142.7164  145.7348  159.5051 H       1  UNL1        0.1571
     24 C         141.2404  145.7251  157.9186 C.ar    1  UNL1        0.1850
     25 N         139.9313  146.4465  157.7930 N.ar    1  UNL1       -0.2007
     26 C         139.6671  146.6771  156.3345 C.ar    1  UNL1        0.2082
     27 N         140.8131  146.0982  155.5587 N.ar    1  UNL1       -0.1840
     28 S         141.7854  145.5098  156.5378 S.2     1  UNL1        0.0497
@<TRIPOS>BOND
     1    20    21    2
     2    21    22   am
     3    22    24    1
     4    24    25   ar
     5    25    26   ar
     6    26    27   ar
     7    27    28   ar
     8    21     1    1
     9     1     2    2
    10     2    15    1
    11    15    16    1
    12    16    17    1
    13    17    18    1
    14    18    19    1
    15     1     3    1
    16     3     4   ar
    17     4     5   ar
    18     5     6   ar
    19     6     9    1
    20     9    10    2
    21     9    11    2
    22     9    12    1
    23    12    13    1
    24    13    14    1
    25     6     7   ar
    26     7     8   ar
    27    28    24   ar
    28    19    15    1
    29     8     3   ar
    30    14    12    1
    31    22    23    1
@<TRIPOS>MOLECULE
*****
 28 31 0 0 0
SMALL
GASTEIGER

@<TRIPOS>ATOM
      1 C         140.4874  141.1643  165.3597 C.2     1  UNL1        0.1518
      2 N         140.0976  139.7168  165.3071 N.2     1  UNL1       -0.1775
      3 C         140.5817  141.9621  164.0929 C.ar    1  UNL1        0.0237
      4 C         139.3627  142.6395  163.5406 C.ar    1  UNL1        0.0030
      5 C         139.4571  143.4373  162.2739 C.ar    1  UNL1        0.0184
      6 C         140.7706  143.5576  161.5595 C.ar    1  UNL1        0.1056
      7 C         141.9896  142.8801  162.1117 C.ar    1  UNL1        0.0184
      8 C         141.8952  142.0824  163.3785 C.ar    1  UNL1        0.0030
      9 S         140.8650  144.3554  160.2927 S.O2    1  UNL1        0.0070
     10 O         139.4175  144.0803  160.0116 O.2     1  UNL1       -0.1687
     11 O         142.3124  144.6305  160.5737 O.2     1  UNL1       -0.1687
     12 C         140.9593  145.1531  159.0259 C.3     1  UNL1        0.1339
     13 C         141.7835  145.7391  157.9181 C.3     1  UNL1        0.0257
     14 C         140.2984  145.9489  157.9397 C.3     1  UNL1        0.0257
     15 N         139.8023  139.0670  163.9877 N.pl3   1  UNL1       -0.2327
     16 C         140.8065  138.4268  163.0758 C.3     1  UNL1        0.1110
     17 C         140.0757  137.9076  161.8732 C.3     1  UNL1        0.0250
     18 C         138.6198  138.2270  162.0418 C.3     1  UNL1        0.0250
     19 C         138.4508  138.9436  163.3487 C.3     1  UNL1        0.1110
     20 O         140.2325  143.1757  166.9843 O.2     1  UNL1       -0.2681
     21 C         140.7827  141.8140  166.6790 C.2     1  UNL1        0.2702
     22 N         141.6283  141.1021  167.6931 N.am    1  UNL1       -0.2582
     23 H         141.9894  140.2085  167.4927 H       1  UNL1        0.1571
     24 C         141.9236  141.7519  169.0123 C.ar    1  UNL1        0.1850
     25 N         143.0158  142.7442  169.2815 N.ar    1  UNL1       -0.2007
     26 C         142.9458  143.1290  170.7296 C.ar    1  UNL1        0.2082
     27 N         141.8104  142.3745  171.3555 N.ar    1  UNL1       -0.1840
     28 S         141.1787  141.5234  170.2941 S.2     1  UNL1        0.0497
@<TRIPOS>BOND
     1    20    21    2
     2    21    22   am
     3    22    24    1
     4    24    25   ar
     5    25    26   ar
     6    26    27   ar
     7    27    28   ar
     8    21     1    1
     9     1     2    2
    10     2    15    1
    11    15    16    1
    12    16    17    1
    13    17    18    1
    14    18    19    1
    15     1     3    1
    16     3     4   ar
    17     4     5   ar
    18     5     6   ar
    19     6     9    1
    20     9    10    2
    21     9    11    2
    22     9    12    1
    23    12    13    1
    24    13    14    1
    25     6     7   ar
    26     7     8   ar
    27    28    24   ar
    28    19    15    1
    29     8     3   ar
    30    14    12    1
    31    22    23    1
@<TRIPOS>MOLECULE
*****
 28 31 0 0 0
SMALL
GASTEIGER

@<TRIPOS>ATOM
      1 C         141.0320  140.2757  164.4252 C.2     1  UNL1        0.1518
      2 N         141.6871  138.9338  164.2831 N.2     1  UNL1       -0.1775
      3 C         141.0474  141.2430  163.2788 C.ar    1  UNL1        0.0237
      4 C         142.1552  142.2473  163.1597 C.ar    1  UNL1        0.0030
      5 C         142.1705  143.2145  162.0133 C.ar    1  UNL1        0.0184
      6 C         141.0781  143.1774  160.9860 C.ar    1  UNL1        0.1056
      7 C         139.9704  142.1731  161.1051 C.ar    1  UNL1        0.0184
      8 C         139.9551  141.2059  162.2515 C.ar    1  UNL1        0.0030
      9 S         141.0935  144.1447  159.8396 S.O2    1  UNL1        0.0070
     10 O         139.5940  144.1805  159.8498 O.2     1  UNL1       -0.1687
     11 O         142.5931  144.1089  159.8295 O.2     1  UNL1       -0.1687
     12 C         141.1089  145.1120  158.6933 C.3     1  UNL1        0.1339
     13 C         141.8712  145.9159  157.6821 C.3     1  UNL1        0.0257
     14 C         140.3732  145.9833  157.7189 C.3     1  UNL1        0.0257
     15 N         142.3576  138.5592  162.9945 N.pl3   1  UNL1       -0.2327
     16 C         141.7056  137.8817  161.8259 C.3     1  UNL1        0.1110
     17 C         142.7428  137.7001  160.7576 C.3     1  UNL1        0.0250
     18 C         144.0358  138.2654  161.2660 C.3     1  UNL1        0.0250
     19 C         143.7977  138.7964  162.6486 C.3     1  UNL1        0.1110
     20 O         139.3742  141.7791  165.7448 O.2     1  UNL1       -0.2681
     21 C         140.3616  140.6503  165.7136 C.2     1  UNL1        0.2702
     22 N         140.6785  139.8961  166.9710 N.am    1  UNL1       -0.2582
     23 H         141.3265  139.1553  166.9505 H       1  UNL1        0.1571
     24 C         140.0080  140.2708  168.2594 C.ar    1  UNL1        0.1850
     25 N         138.8004  139.6060  168.8507 N.ar    1  UNL1       -0.2007
     26 C         138.4735  140.3003  170.1395 C.ar    1  UNL1        0.2082
     27 N         139.4792  141.3942  170.3448 N.ar    1  UNL1       -0.1840
     28 S         140.4275  141.3759  169.1828 S.2     1  UNL1        0.0497
@<TRIPOS>BOND
     1    20    21    2
     2    21    22   am
     3    22    24    1
     4    24    25   ar
     5    25    26   ar
     6    26    27   ar
     7    27    28   ar
     8    21     1    1
     9     1     2    2
    10     2    15    1
    11    15    16    1
    12    16    17    1
    13    17    18    1
    14    18    19    1
    15     1     3    1
    16     3     4   ar
    17     4     5   ar
    18     5     6   ar
    19     6     9    1
    20     9    10    2
    21     9    11    2
    22     9    12    1
    23    12    13    1
    24    13    14    1
    25     6     7   ar
    26     7     8   ar
    27    28    24   ar
    28    19    15    1
    29     8     3   ar
    30    14    12    1
    31    22    23    1
@<TRIPOS>MOLECULE
*****
 28 31 0 0 0
SMALL
GASTEIGER

@<TRIPOS>ATOM
      1 C         141.9316  142.1415  162.2707 C.2     1  UNL1        0.1518
      2 N         140.8151  143.0784  161.9161 N.2     1  UNL1       -0.1775
      3 C         142.0705  141.6387  163.6771 C.ar    1  UNL1        0.0237
      4 C         141.4006  140.3605  164.0863 C.ar    1  UNL1        0.0030
      5 C         141.5396  139.8577  165.4926 C.ar    1  UNL1        0.0184
      6 C         142.3485  140.6331  166.4898 C.ar    1  UNL1        0.1056
      7 C         143.0185  141.9113  166.0807 C.ar    1  UNL1        0.0184
      8 C         142.8795  142.4141  164.6743 C.ar    1  UNL1        0.0030
      9 S         142.4875  140.1302  167.8962 S.O2    1  UNL1        0.0070
     10 O         141.6222  141.2544  168.3836 O.2     1  UNL1       -0.1687
     11 O         143.3528  139.0061  167.4088 O.2     1  UNL1       -0.1687
     12 C         142.6265  139.6275  169.3026 C.3     1  UNL1        0.1339
     13 C         142.8953  139.8888  170.7549 C.3     1  UNL1        0.0257
     14 C         142.5983  138.4952  170.2861 C.3     1  UNL1        0.0257
     15 N         139.8375  143.5124  162.9679 N.pl3   1  UNL1       -0.2327
     16 C         140.0160  144.6593  163.9180 C.3     1  UNL1        0.1110
     17 C         138.7987  144.7314  164.7915 C.3     1  UNL1        0.0250
     18 C         137.8679  143.6289  164.3813 C.3     1  UNL1        0.0250
     19 C         138.5099  142.8755  163.2542 C.3     1  UNL1        0.1110
     20 O         144.1210  140.9119  161.6041 O.2     1  UNL1       -0.2681
     21 C         142.9091  141.7075  161.2190 C.2     1  UNL1        0.2702
     22 N         142.6746  142.0691  159.7822 N.am    1  UNL1       -0.2582
     23 H         141.8792  142.5913  159.5295 H       1  UNL1        0.1571
     24 C         143.6521  141.6351  158.7305 C.ar    1  UNL1        0.1850
     25 N         144.7261  142.4860  158.1202 N.ar    1  UNL1       -0.2007
     26 C         145.4650  141.6508  157.1169 C.ar    1  UNL1        0.2082
     27 N         144.8477  140.2837  157.1072 N.ar    1  UNL1       -0.1840
     28 S         143.7273  140.2741  158.1045 S.2     1  UNL1        0.0497
@<TRIPOS>BOND
     1    20    21    2
     2    21    22   am
     3    22    24    1
     4    24    25   ar
     5    25    26   ar
     6    26    27   ar
     7    27    28   ar
     8    21     1    1
     9     1     2    2
    10     2    15    1
    11    15    16    1
    12    16    17    1
    13    17    18    1
    14    18    19    1
    15     1     3    1
    16     3     4   ar
    17     4     5   ar
    18     5     6   ar
    19     6     9    1
    20     9    10    2
    21     9    11    2
    22     9    12    1
    23    12    13    1
    24    13    14    1
    25     6     7   ar
    26     7     8   ar
    27    28    24   ar
    28    19    15    1
    29     8     3   ar
    30    14    12    1
    31    22    23    1
@<TRIPOS>MOLECULE
*****
 28 31 0 0 0
SMALL
GASTEIGER

@<TRIPOS>ATOM
      1 C         143.4327  140.2455  160.4270 C.2     1  UNL1        0.1518
      2 N         144.4608  141.3025  160.7022 N.2     1  UNL1       -0.1775
      3 C         142.4634  139.8447  161.4994 C.ar    1  UNL1        0.0237
      4 C         141.1825  140.6052  161.6750 C.ar    1  UNL1        0.0030
      5 C         140.2134  140.2044  162.7474 C.ar    1  UNL1        0.0184
      6 C         140.5251  139.0431  163.6442 C.ar    1  UNL1        0.1056
      7 C         141.8061  138.2826  163.4686 C.ar    1  UNL1        0.0184
      8 C         142.7752  138.6834  162.3962 C.ar    1  UNL1        0.0030
      9 S         139.5559  138.6422  164.7166 S.O2    1  UNL1        0.0070
     10 O         140.3148  137.3654  164.9252 O.2     1  UNL1       -0.1687
     11 O         138.7970  139.9191  164.5080 O.2     1  UNL1       -0.1687
     12 C         138.5868  138.2414  165.7890 C.3     1  UNL1        0.1339
     13 C         137.7446  137.1926  166.4528 C.3     1  UNL1        0.0257
     14 C         137.7503  138.5959  166.9825 C.3     1  UNL1        0.0257
     15 N         144.5196  141.9587  162.0498 N.pl3   1  UNL1       -0.2327
     16 C         143.7806  143.1978  162.4602 C.3     1  UNL1        0.1110
     17 C         144.1321  143.4959  163.8876 C.3     1  UNL1        0.0250
     18 C         145.0884  142.4410  164.3595 C.3     1  UNL1        0.0250
     19 C         145.3279  141.4910  163.2237 C.3     1  UNL1        0.1110
     20 O         144.3983  139.9249  158.0365 O.2     1  UNL1       -0.2681
     21 C         143.3738  139.5893  159.0795 C.2     1  UNL1        0.2702
     22 N         142.2904  138.5976  158.7749 N.am    1  UNL1       -0.2582
     23 H         141.6179  138.3774  159.4594 H       1  UNL1        0.1571
     24 C         142.2315  137.9414  157.4273 C.ar    1  UNL1        0.1850
     25 N         141.5654  138.4980  156.2040 N.ar    1  UNL1       -0.2007
     26 C         141.7506  137.5140  155.0871 C.ar    1  UNL1        0.2082
     27 N         142.5311  136.3492  155.6202 N.ar    1  UNL1       -0.1840
     28 S         142.8283  136.6134  157.0665 S.2     1  UNL1        0.0497
@<TRIPOS>BOND
     1    20    21    2
     2    21    22   am
     3    22    24    1
     4    24    25   ar
     5    25    26   ar
     6    26    27   ar
     7    27    28   ar
     8    21     1    1
     9     1     2    2
    10     2    15    1
    11    15    16    1
    12    16    17    1
    13    17    18    1
    14    18    19    1
    15     1     3    1
    16     3     4   ar
    17     4     5   ar
    18     5     6   ar
    19     6     9    1
    20     9    10    2
    21     9    11    2
    22     9    12    1
    23    12    13    1
    24    13    14    1
    25     6     7   ar
    26     7     8   ar
    27    28    24   ar
    28    19    15    1
    29     8     3   ar
    30    14    12    1
    31    22    23    1
@<TRIPOS>MOLECULE
*****
 28 31 0 0 0
SMALL
GASTEIGER

@<TRIPOS>ATOM
      1 C         143.2349  141.3579  160.7057 C.2     1  UNL1        0.1518
      2 N         143.7008  142.7825  160.7653 N.2     1  UNL1       -0.1775
      3 C         142.3108  140.8263  161.7610 C.ar    1  UNL1        0.0237
      4 C         142.8473  140.4623  163.1136 C.ar    1  UNL1        0.0030
      5 C         141.9232  139.9307  164.1687 C.ar    1  UNL1        0.0184
      6 C         140.4625  139.7632  163.8713 C.ar    1  UNL1        0.1056
      7 C         139.9260  140.1271  162.5186 C.ar    1  UNL1        0.0184
      8 C         140.8502  140.6587  161.4635 C.ar    1  UNL1        0.0030
      9 S         139.5384  139.2316  164.9265 S.O2    1  UNL1        0.0070
     10 O         138.4679  139.0415  163.8932 O.2     1  UNL1       -0.1687
     11 O         140.6089  139.4216  165.9598 O.2     1  UNL1       -0.1687
     12 C         138.6143  138.7000  165.9817 C.3     1  UNL1        0.1339
     13 C         137.8406  138.8993  167.2511 C.3     1  UNL1        0.0257
     14 C         137.7874  137.5798  166.5398 C.3     1  UNL1        0.0257
     15 N         143.2426  143.6754  161.8801 N.pl3   1  UNL1       -0.2327
     16 C         141.8933  144.3205  161.9951 C.3     1  UNL1        0.1110
     17 C         141.8701  145.1238  163.2617 C.3     1  UNL1        0.0250
     18 C         143.2050  144.9752  163.9295 C.3     1  UNL1        0.0250
     19 C         144.0532  144.0800  163.0756 C.3     1  UNL1        0.1110
     20 O         144.2695  139.1150  159.9000 O.2     1  UNL1       -0.2681
     21 C         143.6931  140.4649  159.5910 C.2     1  UNL1        0.2702
     22 N         143.5749  140.9219  158.1671 N.am    1  UNL1       -0.2582
     23 H         143.1966  141.8079  157.9643 H       1  UNL1        0.1571
     24 C         144.0331  140.0289  157.0524 C.ar    1  UNL1        0.1850
     25 N         143.4168  138.7180  156.6629 N.ar    1  UNL1       -0.2007
     26 C         144.1908  138.1690  155.5012 C.ar    1  UNL1        0.2082
     27 N         145.2855  139.1406  155.1728 N.ar    1  UNL1       -0.1840
     28 S         145.1879  140.2901  156.1315 S.2     1  UNL1        0.0497
@<TRIPOS>BOND
     1    20    21    2
     2    21    22   am
     3    22    24    1
     4    24    25   ar
     5    25    26   ar
     6    26    27   ar
     7    27    28   ar
     8    21     1    1
     9     1     2    2
    10     2    15    1
    11    15    16    1
    12    16    17    1
    13    17    18    1
    14    18    19    1
    15     1     3    1
    16     3     4   ar
    17     4     5   ar
    18     5     6   ar
    19     6     9    1
    20     9    10    2
    21     9    11    2
    22     9    12    1
    23    12    13    1
    24    13    14    1
    25     6     7   ar
    26     7     8   ar
    27    28    24   ar
    28    19    15    1
    29     8     3   ar
    30    14    12    1
    31    22    23    1
@<TRIPOS>MOLECULE
*****
 28 31 0 0 0
SMALL
GASTEIGER

@<TRIPOS>ATOM
      1 C         140.6496  141.7760  162.2888 C.2     1  UNL1        0.1518
      2 N         140.2192  140.4438  161.7501 N.2     1  UNL1       -0.1775
      3 C         140.9569  141.9308  163.7488 C.ar    1  UNL1        0.0237
      4 C         139.8692  142.3149  164.7076 C.ar    1  UNL1        0.0030
      5 C         140.1765  142.4698  166.1675 C.ar    1  UNL1        0.0184
      6 C         141.5716  142.2404  166.6687 C.ar    1  UNL1        0.1056
      7 C         142.6593  141.8563  165.7100 C.ar    1  UNL1        0.0184
      8 C         142.3520  141.7015  164.2500 C.ar    1  UNL1        0.0030
      9 S         141.8789  142.3953  168.1288 S.O2    1  UNL1        0.0070
     10 O         140.4113  142.4688  168.4298 O.2     1  UNL1       -0.1687
     11 O         143.3465  142.3217  167.8277 O.2     1  UNL1       -0.1687
     12 C         142.1862  142.5501  169.5888 C.3     1  UNL1        0.1339
     13 C         141.9930  142.1127  171.0104 C.3     1  UNL1        0.0257
     14 C         142.9117  143.2558  170.6958 C.3     1  UNL1        0.0257
     15 N         140.0962  139.2665  162.6715 N.pl3   1  UNL1       -0.2327
     16 C         138.8747  138.8822  163.4528 C.3     1  UNL1        0.1110
     17 C         139.1967  137.6450  164.2375 C.3     1  UNL1        0.0250
     18 C         140.6171  137.2647  163.9412 C.3     1  UNL1        0.0250
     19 C         141.1730  138.2668  162.9733 C.3     1  UNL1        0.1110
     20 O         140.6827  144.3468  161.9151 O.2     1  UNL1       -0.2681
     21 C         140.7726  142.9532  161.3675 C.2     1  UNL1        0.2702
     22 N         140.9856  142.7370  159.8985 N.am    1  UNL1       -0.2582
     23 H         141.0446  141.8223  159.5390 H       1  UNL1        0.1571
     24 C         141.1086  143.9142  158.9772 C.ar    1  UNL1        0.1850
     25 N         142.3087  144.8033  158.8380 N.ar    1  UNL1       -0.2007
     26 C         141.9950  145.8477  157.8081 C.ar    1  UNL1        0.2082
     27 N         140.6010  145.6041  157.3107 N.ar    1  UNL1       -0.1840
     28 S         140.0532  144.4092  158.0332 S.2     1  UNL1        0.0497
@<TRIPOS>BOND
     1    20    21    2
     2    21    22   am
     3    22    24    1
     4    24    25   ar
     5    25    26   ar
     6    26    27   ar
     7    27    28   ar
     8    21     1    1
     9     1     2    2
    10     2    15    1
    11    15    16    1
    12    16    17    1
    13    17    18    1
    14    18    19    1
    15     1     3    1
    16     3     4   ar
    17     4     5   ar
    18     5     6   ar
    19     6     9    1
    20     9    10    2
    21     9    11    2
    22     9    12    1
    23    12    13    1
    24    13    14    1
    25     6     7   ar
    26     7     8   ar
    27    28    24   ar
    28    19    15    1
    29     8     3   ar
    30    14    12    1
    31    22    23    1
@<TRIPOS>MOLECULE
*****
 28 31 0 0 0
SMALL
GASTEIGER

@<TRIPOS>ATOM
      1 C         139.9482  143.0866  159.8264 C.2     1  UNL1        0.1518
      2 N         140.8829  144.2481  159.9913 N.2     1  UNL1       -0.1775
      3 C         139.5913  142.2372  161.0102 C.ar    1  UNL1        0.0237
      4 C         138.3818  142.5681  161.8333 C.ar    1  UNL1        0.0030
      5 C         138.0250  141.7187  163.0170 C.ar    1  UNL1        0.0184
      6 C         138.8777  140.5385  163.3776 C.ar    1  UNL1        0.1056
      7 C         140.0872  140.2076  162.5544 C.ar    1  UNL1        0.0184
      8 C         140.4440  141.0570  161.3707 C.ar    1  UNL1        0.0030
      9 S         138.5208  139.6891  164.5613 S.O2    1  UNL1        0.0070
     10 O         138.4126  140.9199  165.4118 O.2     1  UNL1       -0.1687
     11 O         138.6289  138.4582  163.7108 O.2     1  UNL1       -0.1687
     12 C         138.1639  138.8398  165.7451 C.3     1  UNL1        0.1339
     13 C         137.9864  137.4861  166.3664 C.3     1  UNL1        0.0257
     14 C         137.7233  138.7224  167.1741 C.3     1  UNL1        0.0257
     15 N         141.4607  144.5603  161.3399 N.pl3   1  UNL1       -0.2327
     16 C         142.7818  144.0820  161.8653 C.3     1  UNL1        0.1110
     17 C         142.9564  144.6316  163.2500 C.3     1  UNL1        0.0250
     18 C         141.7432  145.4496  163.5804 C.3     1  UNL1        0.0250
     19 C         140.8189  145.4055  162.3999 C.3     1  UNL1        0.1110
     20 O         140.2737  142.3736  157.3494 O.2     1  UNL1       -0.2681
     21 C         139.3704  142.7744  158.4778 C.2     1  UNL1        0.2702
     22 N         137.8892  142.8631  158.2577 N.am    1  UNL1       -0.2582
     23 H         137.2964  143.1262  158.9983 H       1  UNL1        0.1571
     24 C         137.3114  142.5510  156.9091 C.ar    1  UNL1        0.1850
     25 N         136.8214  141.2101  156.4488 N.ar    1  UNL1       -0.2007
     26 C         136.3293  141.3553  155.0393 C.ar    1  UNL1        0.2082
     27 N         136.5152  142.7859  154.6284 N.ar    1  UNL1       -0.1840
     28 S         137.1222  143.5249  155.7841 S.2     1  UNL1        0.0497
@<TRIPOS>BOND
     1    20    21    2
     2    21    22   am
     3    22    24    1
     4    24    25   ar
     5    25    26   ar
     6    26    27   ar
     7    27    28   ar
     8    21     1    1
     9     1     2    2
    10     2    15    1
    11    15    16    1
    12    16    17    1
    13    17    18    1
    14    18    19    1
    15     1     3    1
    16     3     4   ar
    17     4     5   ar
    18     5     6   ar
    19     6     9    1
    20     9    10    2
    21     9    11    2
    22     9    12    1
    23    12    13    1
    24    13    14    1
    25     6     7   ar
    26     7     8   ar
    27    28    24   ar
    28    19    15    1
    29     8     3   ar
    30    14    12    1
    31    22    23    1
@<TRIPOS>MOLECULE
*****
 28 31 0 0 0
SMALL
GASTEIGER

@<TRIPOS>ATOM
      1 C         140.9282  140.3320  165.2699 C.2     1  UNL1        0.1518
      2 N         139.6273  139.5860  165.2338 N.2     1  UNL1       -0.1775
      3 C         141.6058  140.7202  163.9892 C.ar    1  UNL1        0.0237
      4 C         142.5392  139.7600  163.3135 C.ar    1  UNL1        0.0030
      5 C         143.2168  140.1483  162.0328 C.ar    1  UNL1        0.0184
      6 C         142.9609  141.4968  161.4279 C.ar    1  UNL1        0.1056
      7 C         142.0275  142.4571  162.1036 C.ar    1  UNL1        0.0184
      8 C         141.3499  142.0688  163.3842 C.ar    1  UNL1        0.0030
      9 S         143.6386  141.8851  160.1472 S.O2    1  UNL1        0.0070
     10 O         143.7552  140.4380  159.7702 O.2     1  UNL1       -0.1687
     11 O         143.5219  143.3322  160.5241 O.2     1  UNL1       -0.1687
     12 C         144.3162  142.2733  158.8665 C.3     1  UNL1        0.1339
     13 C         144.2400  142.6102  157.4069 C.3     1  UNL1        0.0257
     14 C         145.5660  142.6088  158.1080 C.3     1  UNL1        0.0257
     15 N         139.0041  139.2283  163.9171 N.pl3   1  UNL1       -0.2327
     16 C         139.1442  137.9170  163.2026 C.3     1  UNL1        0.1110
     17 C         138.3580  137.9974  161.9276 C.3     1  UNL1        0.0250
     18 C         137.7320  139.3586  161.8542 C.3     1  UNL1        0.0250
     19 C         138.1313  140.1193  163.0838 C.3     1  UNL1        0.1110
     20 O         142.3512  139.6684  167.3398 O.2     1  UNL1       -0.2681
     21 C         141.5514  140.6896  166.5865 C.2     1  UNL1        0.2702
     22 N         141.3749  142.0686  167.1499 N.am    1  UNL1       -0.2582
     23 H         140.8501  142.7389  166.6555 H       1  UNL1        0.1571
     24 C         141.9982  142.4263  168.4665 C.ar    1  UNL1        0.1850
     25 N         143.4679  142.4728  168.7626 N.ar    1  UNL1       -0.2007
     26 C         143.6393  142.8755  170.1973 C.ar    1  UNL1        0.2082
     27 N         142.2753  143.0779  170.7880 N.ar    1  UNL1       -0.1840
     28 S         141.2611  142.8003  169.7183 S.2     1  UNL1        0.0497
@<TRIPOS>BOND
     1    20    21    2
     2    21    22   am
     3    22    24    1
     4    24    25   ar
     5    25    26   ar
     6    26    27   ar
     7    27    28   ar
     8    21     1    1
     9     1     2    2
    10     2    15    1
    11    15    16    1
    12    16    17    1
    13    17    18    1
    14    18    19    1
    15     1     3    1
    16     3     4   ar
    17     4     5   ar
    18     5     6   ar
    19     6     9    1
    20     9    10    2
    21     9    11    2
    22     9    12    1
    23    12    13    1
    24    13    14    1
    25     6     7   ar
    26     7     8   ar
    27    28    24   ar
    28    19    15    1
    29     8     3   ar
    30    14    12    1
    31    22    23    1
