@<TRIPOS>MOLECULE
*****
 30 33 0 0 0
SMALL
GASTEIGER

@<TRIPOS>ATOM
      1 N         142.9967  141.6524  168.5451 N.3     1  UNL1       -0.2724
      2 C         142.2477  140.3535  168.5030 C.3     1  UNL1        0.0760
      3 C         141.5484  139.9315  167.2449 C.3     1  UNL1        0.0617
      4 C         141.5980  140.8084  166.0290 C.3     1  UNL1        0.1542
      5 C         141.6476  141.6853  164.8130 C.2     1  UNL1        0.0130
      6 C         140.9483  141.2633  163.5549 C.2     1  UNL1        0.0020
      7 C         140.1993  139.9644  163.5128 C.ar    1  UNL1        0.0338
      8 C         139.4999  139.5424  162.2547 C.ar    1  UNL1        0.0030
      9 C         138.7509  138.2435  162.2125 C.ar    1  UNL1        0.0002
     10 C         138.7012  137.3665  163.4285 C.ar    1  UNL1        0.0031
     11 C         139.4006  137.7885  164.6866 C.ar    1  UNL1        0.0369
     12 C         140.1496  139.0875  164.7287 C.ar    1  UNL1        0.1386
     13 O         140.8490  139.5095  165.9868 O.3     1  UNL1       -0.4785
     14 C         142.3470  142.1073  166.0711 C.3     1  UNL1        0.0617
     15 C         143.0463  142.5293  167.3292 C.3     1  UNL1        0.0760
     16 C         140.9979  142.1403  162.3390 C.ar    1  UNL1       -0.0001
     17 C         142.0025  141.8685  161.2587 C.ar    1  UNL1        0.0001
     18 C         142.0522  142.7455  160.0428 C.ar    1  UNL1        0.0045
     19 C         141.0972  143.8942  159.9071 C.ar    1  UNL1        0.0536
     20 C         140.0926  144.1660  160.9874 C.ar    1  UNL1        0.0045
     21 C         140.0429  143.2890  162.2033 C.ar    1  UNL1        0.0001
     22 C         141.1468  144.7712  158.6912 C.2     1  UNL1        0.2490
     23 O         142.1257  145.9058  158.6242 O.2     1  UNL1       -0.2699
     24 N         140.2175  144.5136  157.5423 N.am    1  UNL1       -0.2761
     25 C         140.2671  145.3905  156.3263 C.3     1  UNL1        0.0938
     26 C         139.5584  146.7125  156.3256 C.3     1  UNL1        0.0233
     27 C         139.2386  143.3790  157.6093 C.3     1  UNL1        0.0938
     28 C         139.6455  142.0094  157.1521 C.3     1  UNL1        0.0233
     29 C         143.1230  143.1741  170.6472 C.3     1  UNL1        0.0188
     30 C         143.6961  142.0744  169.8032 C.3     1  UNL1        0.0721
@<TRIPOS>BOND
     1    29    30    1
     2    30     1    1
     3     1     2    1
     4     2     3    1
     5     3     4    1
     6     4     5    1
     7     5     6    2
     8     6    16    1
     9    16    17   ar
    10    17    18   ar
    11    18    19   ar
    12    19    22    1
    13    22    23    2
    14    22    24   am
    15    24    25    1
    16    25    26    1
    17    24    27    1
    18    27    28    1
    19    19    20   ar
    20    20    21   ar
    21     6     7    1
    22     7     8   ar
    23     8     9   ar
    24     9    10   ar
    25    10    11   ar
    26    11    12   ar
    27    12    13    1
    28     4    14    1
    29    14    15    1
    30    15     1    1
    31    13     4    1
    32    21    16   ar
    33    12     7   ar
@<TRIPOS>MOLECULE
*****
 30 33 0 0 0
SMALL
GASTEIGER

@<TRIPOS>ATOM
      1 N         140.5741  145.2807  158.1424 N.3     1  UNL1       -0.2724
      2 C         141.3374  144.1148  157.5874 C.3     1  UNL1        0.0760
      3 C         141.8134  143.0258  158.5026 C.3     1  UNL1        0.0617
      4 C         141.5260  143.1027  159.9728 C.3     1  UNL1        0.1542
      5 C         141.2387  143.1796  161.4429 C.2     1  UNL1        0.0130
      6 C         141.7146  142.0906  162.3581 C.2     1  UNL1        0.0020
      7 C         142.4779  140.9248  161.8032 C.ar    1  UNL1        0.0338
      8 C         142.9539  139.8358  162.7184 C.ar    1  UNL1        0.0030
      9 C         143.7172  138.6699  162.1634 C.ar    1  UNL1        0.0002
     10 C         144.0046  138.5930  160.6931 C.ar    1  UNL1        0.0031
     11 C         143.5286  139.6819  159.7779 C.ar    1  UNL1        0.0369
     12 C         142.7653  140.8479  160.3330 C.ar    1  UNL1        0.1386
     13 O         142.2893  141.9368  159.4178 O.3     1  UNL1       -0.4785
     14 C         140.7627  144.2686  160.5277 C.3     1  UNL1        0.0617
     15 C         140.2868  145.3576  159.6125 C.3     1  UNL1        0.0760
     16 C         141.4272  142.1676  163.8284 C.ar    1  UNL1       -0.0001
     17 C         140.0375  141.9189  164.3349 C.ar    1  UNL1        0.0001
     18 C         139.7501  141.9959  165.8052 C.ar    1  UNL1        0.0045
     19 C         140.8525  142.3215  166.7688 C.ar    1  UNL1        0.0536
     20 C         142.2424  142.5701  166.2622 C.ar    1  UNL1        0.0045
     21 C         142.5297  142.4932  164.7920 C.ar    1  UNL1        0.0001
     22 C         140.5652  142.3984  168.2390 C.2     1  UNL1        0.2490
     23 O         140.1300  143.6968  168.8512 O.2     1  UNL1       -0.2699
     24 N         140.7131  141.1770  169.0970 N.am    1  UNL1       -0.2761
     25 C         140.4258  141.2539  170.5673 C.3     1  UNL1        0.0938
     26 C         141.4818  141.7437  171.5132 C.3     1  UNL1        0.0233
     27 C         141.1483  139.8786  168.4848 C.3     1  UNL1        0.0938
     28 C         142.5975  139.4917  168.4980 C.3     1  UNL1        0.0233
     29 C         139.5241  146.0240  155.8852 C.3     1  UNL1        0.0188
     30 C         140.0982  146.3697  157.2272 C.3     1  UNL1        0.0721
@<TRIPOS>BOND
     1    29    30    1
     2    30     1    1
     3     1     2    1
     4     2     3    1
     5     3     4    1
     6     4     5    1
     7     5     6    2
     8     6    16    1
     9    16    17   ar
    10    17    18   ar
    11    18    19   ar
    12    19    22    1
    13    22    23    2
    14    22    24   am
    15    24    25    1
    16    25    26    1
    17    24    27    1
    18    27    28    1
    19    19    20   ar
    20    20    21   ar
    21     6     7    1
    22     7     8   ar
    23     8     9   ar
    24     9    10   ar
    25    10    11   ar
    26    11    12   ar
    27    12    13    1
    28     4    14    1
    29    14    15    1
    30    15     1    1
    31    13     4    1
    32    21    16   ar
    33    12     7   ar
@<TRIPOS>MOLECULE
*****
 30 33 0 0 0
SMALL
GASTEIGER

@<TRIPOS>ATOM
      1 N         140.4359  145.1041  158.0963 N.3     1  UNL1       -0.2724
      2 C         139.5259  143.9726  157.7200 C.3     1  UNL1        0.0760
      3 C         139.2558  142.8697  158.7001 C.3     1  UNL1        0.0617
      4 C         139.8956  142.8982  160.0565 C.3     1  UNL1        0.1542
      5 C         140.5355  142.9268  161.4128 C.2     1  UNL1        0.0130
      6 C         140.2654  141.8239  162.3929 C.2     1  UNL1        0.0020
      7 C         139.3554  140.6924  162.0166 C.ar    1  UNL1        0.0338
      8 C         139.0853  139.5894  162.9967 C.ar    1  UNL1        0.0030
      9 C         138.1753  138.4580  162.6205 C.ar    1  UNL1        0.0002
     10 C         137.5354  138.4294  161.2641 C.ar    1  UNL1        0.0031
     11 C         137.8055  139.5323  160.2840 C.ar    1  UNL1        0.0369
     12 C         138.7155  140.6638  160.6603 C.ar    1  UNL1        0.1386
     13 O         138.9857  141.7668  159.6802 O.3     1  UNL1       -0.4785
     14 C         140.8056  144.0297  160.4327 C.3     1  UNL1        0.0617
     15 C         141.0758  145.1327  159.4526 C.3     1  UNL1        0.0760
     16 C         140.9053  141.8525  163.7493 C.ar    1  UNL1       -0.0001
     17 C         142.1499  141.0564  164.0083 C.ar    1  UNL1        0.0001
     18 C         142.7898  141.0850  165.3647 C.ar    1  UNL1        0.0045
     19 C         142.1851  141.9097  166.4621 C.ar    1  UNL1        0.0536
     20 C         140.9404  142.7058  166.2030 C.ar    1  UNL1        0.0045
     21 C         140.3005  142.6772  164.8466 C.ar    1  UNL1        0.0001
     22 C         142.8249  141.9383  167.8184 C.2     1  UNL1        0.2490
     23 O         143.9393  142.9016  168.1018 O.2     1  UNL1       -0.2699
     24 N         142.3504  141.0037  168.8914 N.am    1  UNL1       -0.2761
     25 C         142.9902  141.0323  170.2478 C.3     1  UNL1        0.0938
     26 C         143.2239  139.7523  170.9940 C.3     1  UNL1        0.0233
     27 C         141.2360  140.0405  168.6080 C.3     1  UNL1        0.0938
     28 C         139.8295  140.3845  168.9998 C.3     1  UNL1        0.0233
     29 C         139.5635  146.9478  156.4870 C.3     1  UNL1        0.0188
     30 C         140.7060  146.2070  157.1162 C.3     1  UNL1        0.0721
@<TRIPOS>BOND
     1    29    30    1
     2    30     1    1
     3     1     2    1
     4     2     3    1
     5     3     4    1
     6     4     5    1
     7     5     6    2
     8     6    16    1
     9    16    17   ar
    10    17    18   ar
    11    18    19   ar
    12    19    22    1
    13    22    23    2
    14    22    24   am
    15    24    25    1
    16    25    26    1
    17    24    27    1
    18    27    28    1
    19    19    20   ar
    20    20    21   ar
    21     6     7    1
    22     7     8   ar
    23     8     9   ar
    24     9    10   ar
    25    10    11   ar
    26    11    12   ar
    27    12    13    1
    28     4    14    1
    29    14    15    1
    30    15     1    1
    31    13     4    1
    32    21    16   ar
    33    12     7   ar
@<TRIPOS>MOLECULE
*****
 30 33 0 0 0
SMALL
GASTEIGER

@<TRIPOS>ATOM
      1 N         144.4132  141.7105  157.1611 N.3     1  UNL1       -0.2724
      2 C         143.5444  142.9263  157.0313 C.3     1  UNL1        0.0760
      3 C         142.7768  143.4297  158.2176 C.3     1  UNL1        0.0617
      4 C         142.8780  142.7174  159.5337 C.3     1  UNL1        0.1542
      5 C         142.9792  142.0050  160.8499 C.2     1  UNL1        0.0130
      6 C         142.2115  142.5085  162.0361 C.2     1  UNL1        0.0020
      7 C         141.3428  143.7243  161.9063 C.ar    1  UNL1        0.0338
      8 C         140.5751  144.2278  163.0926 C.ar    1  UNL1        0.0030
      9 C         139.7063  145.4436  162.9628 C.ar    1  UNL1        0.0002
     10 C         139.6051  146.1560  161.6466 C.ar    1  UNL1        0.0031
     11 C         140.3727  145.6526  160.4603 C.ar    1  UNL1        0.0369
     12 C         141.2416  144.4367  160.5902 C.ar    1  UNL1        0.1386
     13 O         142.0092  143.9332  159.4039 O.3     1  UNL1       -0.4785
     14 C         143.7468  141.5016  159.6636 C.3     1  UNL1        0.0617
     15 C         144.5144  140.9981  158.4773 C.3     1  UNL1        0.0760
     16 C         142.3128  141.7960  163.3523 C.ar    1  UNL1       -0.0001
     17 C         143.3217  142.2398  164.3697 C.ar    1  UNL1        0.0001
     18 C         143.4229  141.5273  165.6859 C.ar    1  UNL1        0.0045
     19 C         142.5151  140.3712  165.9846 C.ar    1  UNL1        0.0536
     20 C         141.5061  139.9275  164.9672 C.ar    1  UNL1        0.0045
     21 C         141.4050  140.6399  163.6511 C.ar    1  UNL1        0.0001
     22 C         142.6163  139.6587  167.3007 C.2     1  UNL1        0.2490
     23 O         143.4840  138.4421  167.4302 O.2     1  UNL1       -0.2699
     24 N         141.8497  140.1630  168.4873 N.am    1  UNL1       -0.2761
     25 C         141.9509  139.4505  169.8035 C.3     1  UNL1        0.0938
     26 C         143.0760  139.7676  170.7434 C.3     1  UNL1        0.0233
     27 C         140.9820  141.3796  168.3578 C.3     1  UNL1        0.0938
     28 C         140.0323  141.7443  169.4602 C.3     1  UNL1        0.0233
     29 C         145.9960  142.1585  155.1501 C.3     1  UNL1        0.0188
     30 C         145.1808  141.2070  155.9749 C.3     1  UNL1        0.0721
@<TRIPOS>BOND
     1    29    30    1
     2    30     1    1
     3     1     2    1
     4     2     3    1
     5     3     4    1
     6     4     5    1
     7     5     6    2
     8     6    16    1
     9    16    17   ar
    10    17    18   ar
    11    18    19   ar
    12    19    22    1
    13    22    23    2
    14    22    24   am
    15    24    25    1
    16    25    26    1
    17    24    27    1
    18    27    28    1
    19    19    20   ar
    20    20    21   ar
    21     6     7    1
    22     7     8   ar
    23     8     9   ar
    24     9    10   ar
    25    10    11   ar
    26    11    12   ar
    27    12    13    1
    28     4    14    1
    29    14    15    1
    30    15     1    1
    31    13     4    1
    32    21    16   ar
    33    12     7   ar
@<TRIPOS>MOLECULE
*****
 30 33 0 0 0
SMALL
GASTEIGER

@<TRIPOS>ATOM
      1 N         143.1267  133.2962  155.5965 N.3     1  UNL1       -0.2724
      2 C         141.8726  133.6922  154.8753 C.3     1  UNL1        0.0760
      3 C         141.2290  135.0165  155.1617 C.3     1  UNL1        0.0617
      4 C         141.8396  135.9448  156.1694 C.3     1  UNL1        0.1542
      5 C         142.4502  136.8730  157.1771 C.2     1  UNL1        0.0130
      6 C         141.8067  138.1973  157.4636 C.2     1  UNL1        0.0020
      7 C         140.5525  138.5934  156.7424 C.ar    1  UNL1        0.0338
      8 C         139.9089  139.9177  157.0288 C.ar    1  UNL1        0.0030
      9 C         138.6548  140.3137  156.3076 C.ar    1  UNL1        0.0002
     10 C         138.0441  139.3854  155.2999 C.ar    1  UNL1        0.0031
     11 C         138.6877  138.0611  155.0134 C.ar    1  UNL1        0.0369
     12 C         139.9419  137.6651  155.7347 C.ar    1  UNL1        0.1386
     13 O         140.5855  136.3408  155.4482 O.3     1  UNL1       -0.4785
     14 C         143.0938  135.5487  156.8906 C.3     1  UNL1        0.0617
     15 C         143.7373  134.2245  156.6041 C.3     1  UNL1        0.0760
     16 C         142.4173  139.1256  158.4713 C.ar    1  UNL1       -0.0001
     17 C         142.0441  139.0109  159.9195 C.ar    1  UNL1        0.0001
     18 C         142.6548  139.9391  160.9273 C.ar    1  UNL1        0.0045
     19 C         143.6387  140.9822  160.4867 C.ar    1  UNL1        0.0536
     20 C         144.0119  141.0969  159.0383 C.ar    1  UNL1        0.0045
     21 C         143.4012  140.1686  158.0307 C.ar    1  UNL1        0.0001
     22 C         144.2493  141.9104  161.4943 C.2     1  UNL1        0.2490
     23 O         145.4922  141.5058  162.2303 O.2     1  UNL1       -0.2699
     24 N         143.6171  143.2432  161.7660 N.am    1  UNL1       -0.2761
     25 C         144.2278  144.1716  162.7737 C.3     1  UNL1        0.0938
     26 C         143.3550  145.1049  163.5592 C.3     1  UNL1        0.0233
     27 C         142.3743  143.6478  161.0301 C.3     1  UNL1        0.0938
     28 C         141.0277  143.2443  161.5537 C.3     1  UNL1        0.0233
     29 C         144.9176  131.4978  156.1519 C.3     1  UNL1        0.0188
     30 C         143.7703  131.9719  155.3100 C.3     1  UNL1        0.0721
@<TRIPOS>BOND
     1    29    30    1
     2    30     1    1
     3     1     2    1
     4     2     3    1
     5     3     4    1
     6     4     5    1
     7     5     6    2
     8     6    16    1
     9    16    17   ar
    10    17    18   ar
    11    18    19   ar
    12    19    22    1
    13    22    23    2
    14    22    24   am
    15    24    25    1
    16    25    26    1
    17    24    27    1
    18    27    28    1
    19    19    20   ar
    20    20    21   ar
    21     6     7    1
    22     7     8   ar
    23     8     9   ar
    24     9    10   ar
    25    10    11   ar
    26    11    12   ar
    27    12    13    1
    28     4    14    1
    29    14    15    1
    30    15     1    1
    31    13     4    1
    32    21    16   ar
    33    12     7   ar
@<TRIPOS>MOLECULE
*****
 30 33 0 0 0
SMALL
GASTEIGER

@<TRIPOS>ATOM
      1 N         146.6924  141.7941  156.1656 N.3     1  UNL1       -0.2724
      2 C         146.2355  140.6314  155.3354 C.3     1  UNL1        0.0760
      3 C         144.9047  139.9940  155.6054 C.3     1  UNL1        0.0617
      4 C         144.0309  140.5194  156.7055 C.3     1  UNL1        0.1542
      5 C         143.1571  141.0447  157.8057 C.2     1  UNL1        0.0130
      6 C         141.8263  140.4074  158.0757 C.2     1  UNL1        0.0020
      7 C         141.3694  139.2447  157.2455 C.ar    1  UNL1        0.0338
      8 C         140.0386  138.6073  157.5154 C.ar    1  UNL1        0.0030
      9 C         139.5817  137.4446  156.6852 C.ar    1  UNL1        0.0002
     10 C         140.4555  136.9192  155.5850 C.ar    1  UNL1        0.0031
     11 C         141.7863  137.5566  155.3150 C.ar    1  UNL1        0.0369
     12 C         142.2432  138.7193  156.1453 C.ar    1  UNL1        0.1386
     13 O         143.5740  139.3567  155.8753 O.3     1  UNL1       -0.4785
     14 C         144.4878  141.6821  157.5358 C.3     1  UNL1        0.0617
     15 C         145.8186  142.3194  157.2658 C.3     1  UNL1        0.0760
     16 C         140.9525  140.9328  159.1759 C.ar    1  UNL1       -0.0001
     17 C         139.9084  141.9669  158.8754 C.ar    1  UNL1        0.0001
     18 C         139.0346  142.4923  159.9756 C.ar    1  UNL1        0.0045
     19 C         139.2049  141.9836  161.3764 C.ar    1  UNL1        0.0536
     20 C         140.2491  140.9494  161.6769 C.ar    1  UNL1        0.0045
     21 C         141.1229  140.4240  160.5767 C.ar    1  UNL1        0.0001
     22 C         138.3312  142.5089  162.4766 C.2     1  UNL1        0.2490
     23 O         137.0670  141.7877  162.8395 O.2     1  UNL1       -0.2699
     24 N         138.7216  143.7554  163.2139 N.am    1  UNL1       -0.2761
     25 C         137.8479  144.2809  164.3142 C.3     1  UNL1        0.0938
     26 C         138.4666  144.8967  165.5339 C.3     1  UNL1        0.0233
     27 C         139.9858  144.4766  162.8510 C.3     1  UNL1        0.0938
     28 C         139.9204  145.7723  162.0980 C.3     1  UNL1        0.0233
     29 C         149.1636  141.6001  155.3876 C.3     1  UNL1        0.0188
     30 C         148.0232  142.4314  155.8957 C.3     1  UNL1        0.0721
@<TRIPOS>BOND
     1    29    30    1
     2    30     1    1
     3     1     2    1
     4     2     3    1
     5     3     4    1
     6     4     5    1
     7     5     6    2
     8     6    16    1
     9    16    17   ar
    10    17    18   ar
    11    18    19   ar
    12    19    22    1
    13    22    23    2
    14    22    24   am
    15    24    25    1
    16    25    26    1
    17    24    27    1
    18    27    28    1
    19    19    20   ar
    20    20    21   ar
    21     6     7    1
    22     7     8   ar
    23     8     9   ar
    24     9    10   ar
    25    10    11   ar
    26    11    12   ar
    27    12    13    1
    28     4    14    1
    29    14    15    1
    30    15     1    1
    31    13     4    1
    32    21    16   ar
    33    12     7   ar
@<TRIPOS>MOLECULE
*****
 30 33 0 0 0
SMALL
GASTEIGER

@<TRIPOS>ATOM
      1 N         141.9707  140.1631  168.8316 N.3     1  UNL1       -0.2724
      2 C         141.0065  141.3121  168.8188 C.3     1  UNL1        0.0760
      3 C         140.4253  141.7891  167.5209 C.3     1  UNL1        0.0617
      4 C         140.8082  141.1171  166.2357 C.3     1  UNL1        0.1542
      5 C         141.1911  140.4451  164.9505 C.2     1  UNL1        0.0130
      6 C         140.6099  140.9221  163.6526 C.2     1  UNL1        0.0020
      7 C         139.6457  142.0711  163.6398 C.ar    1  UNL1        0.0338
      8 C         139.0645  142.5480  162.3419 C.ar    1  UNL1        0.0030
      9 C         138.1003  143.6970  162.3291 C.ar    1  UNL1        0.0002
     10 C         137.7173  144.3691  163.6143 C.ar    1  UNL1        0.0031
     11 C         138.2986  143.8921  164.9123 C.ar    1  UNL1        0.0369
     12 C         139.2628  142.7430  164.9250 C.ar    1  UNL1        0.1386
     13 O         139.8440  142.2661  166.2229 O.3     1  UNL1       -0.4785
     14 C         141.7724  139.9681  166.2484 C.3     1  UNL1        0.0617
     15 C         142.3536  139.4912  167.5464 C.3     1  UNL1        0.0760
     16 C         140.9929  140.2501  162.3673 C.ar    1  UNL1       -0.0001
     17 C         140.1772  139.1031  161.8487 C.ar    1  UNL1        0.0001
     18 C         140.5602  138.4310  160.5634 C.ar    1  UNL1        0.0045
     19 C         141.7589  138.9060  159.7969 C.ar    1  UNL1        0.0536
     20 C         142.5746  140.0531  160.3156 C.ar    1  UNL1        0.0045
     21 C         142.1916  140.7251  161.6008 C.ar    1  UNL1        0.0001
     22 C         142.1419  138.2341  158.5118 C.2     1  UNL1        0.2490
     23 O         143.0891  137.0710  158.5268 O.2     1  UNL1       -0.2699
     24 N         141.5778  138.7251  157.2116 N.am    1  UNL1       -0.2761
     25 C         141.9608  138.0532  155.9263 C.3     1  UNL1        0.0938
     26 C         141.1373  136.9150  155.4006 C.3     1  UNL1        0.0233
     27 C         140.6307  139.8882  157.1965 C.3     1  UNL1        0.0938
     28 C         139.1527  139.6532  157.2988 C.3     1  UNL1        0.0233
     29 C         142.9417  138.2470  170.2928 C.3     1  UNL1        0.0188
     30 C         142.5519  139.6862  170.1295 C.3     1  UNL1        0.0721
@<TRIPOS>BOND
     1    29    30    1
     2    30     1    1
     3     1     2    1
     4     2     3    1
     5     3     4    1
     6     4     5    1
     7     5     6    2
     8     6    16    1
     9    16    17   ar
    10    17    18   ar
    11    18    19   ar
    12    19    22    1
    13    22    23    2
    14    22    24   am
    15    24    25    1
    16    25    26    1
    17    24    27    1
    18    27    28    1
    19    19    20   ar
    20    20    21   ar
    21     6     7    1
    22     7     8   ar
    23     8     9   ar
    24     9    10   ar
    25    10    11   ar
    26    11    12   ar
    27    12    13    1
    28     4    14    1
    29    14    15    1
    30    15     1    1
    31    13     4    1
    32    21    16   ar
    33    12     7   ar
@<TRIPOS>MOLECULE
*****
 30 33 0 0 0
SMALL
GASTEIGER

@<TRIPOS>ATOM
      1 N         138.3044  139.1961  166.5854 N.3     1  UNL1       -0.2724
      2 C         139.5227  139.6913  167.3068 C.3     1  UNL1        0.0760
      3 C         140.4996  140.5856  166.6026 C.3     1  UNL1        0.0617
      4 C         140.2583  140.9846  165.1770 C.3     1  UNL1        0.1542
      5 C         140.0170  141.3836  163.7513 C.2     1  UNL1        0.0130
      6 C         140.9940  142.2779  163.0471 C.2     1  UNL1        0.0020
      7 C         142.2122  142.7731  163.7686 C.ar    1  UNL1        0.0338
      8 C         143.1891  143.6674  163.0644 C.ar    1  UNL1        0.0030
      9 C         144.4074  144.1626  163.7859 C.ar    1  UNL1        0.0002
     10 C         144.6487  143.7637  165.2116 C.ar    1  UNL1        0.0031
     11 C         143.6718  142.8694  165.9158 C.ar    1  UNL1        0.0369
     12 C         142.4535  142.3741  165.1942 C.ar    1  UNL1        0.1386
     13 O         141.4766  141.4799  165.8984 O.3     1  UNL1       -0.4785
     14 C         139.0401  140.4893  164.4555 C.3     1  UNL1        0.0617
     15 C         138.0631  139.5951  165.1597 C.3     1  UNL1        0.0760
     16 C         140.7526  142.6769  161.6214 C.ar    1  UNL1       -0.0001
     17 C         140.1695  144.0228  161.3077 C.ar    1  UNL1        0.0001
     18 C         139.9282  144.4218  159.8819 C.ar    1  UNL1        0.0045
     19 C         140.2699  143.4748  158.7700 C.ar    1  UNL1        0.0536
     20 C         140.8530  142.1288  159.0838 C.ar    1  UNL1        0.0045
     21 C         141.0944  141.7299  160.5095 C.ar    1  UNL1        0.0001
     22 C         140.0286  143.8737  157.3443 C.2     1  UNL1        0.2490
     23 O         141.0508  144.6904  156.6107 O.2     1  UNL1       -0.2699
     24 N         138.7651  143.4560  156.6523 N.am    1  UNL1       -0.2761
     25 C         138.5237  143.8549  155.2265 C.3     1  UNL1        0.0938
     26 C         137.7282  145.0884  154.9173 C.3     1  UNL1        0.0233
     27 C         137.7429  142.6393  157.3859 C.3     1  UNL1        0.0938
     28 C         137.6150  141.1710  157.1067 C.3     1  UNL1        0.0233
     29 C         137.3053  136.8322  166.9900 C.3     1  UNL1        0.0188
     30 C         137.3275  138.3018  167.2895 C.3     1  UNL1        0.0721
@<TRIPOS>BOND
     1    29    30    1
     2    30     1    1
     3     1     2    1
     4     2     3    1
     5     3     4    1
     6     4     5    1
     7     5     6    2
     8     6    16    1
     9    16    17   ar
    10    17    18   ar
    11    18    19   ar
    12    19    22    1
    13    22    23    2
    14    22    24   am
    15    24    25    1
    16    25    26    1
    17    24    27    1
    18    27    28    1
    19    19    20   ar
    20    20    21   ar
    21     6     7    1
    22     7     8   ar
    23     8     9   ar
    24     9    10   ar
    25    10    11   ar
    26    11    12   ar
    27    12    13    1
    28     4    14    1
    29    14    15    1
    30    15     1    1
    31    13     4    1
    32    21    16   ar
    33    12     7   ar
@<TRIPOS>MOLECULE
*****
 30 33 0 0 0
SMALL
GASTEIGER

@<TRIPOS>ATOM
      1 N         142.4103  138.0848  157.7710 N.3     1  UNL1       -0.2724
      2 C         141.9808  139.4360  157.2815 C.3     1  UNL1        0.0760
      3 C         141.7286  140.5433  158.2614 C.3     1  UNL1        0.0617
      4 C         141.9061  140.2995  159.7307 C.3     1  UNL1        0.1542
      5 C         142.0835  140.0557  161.2001 C.2     1  UNL1        0.0130
      6 C         141.8314  141.1630  162.1799 C.2     1  UNL1        0.0020
      7 C         141.4018  142.5143  161.6905 C.ar    1  UNL1        0.0338
      8 C         141.1497  143.6216  162.6703 C.ar    1  UNL1        0.0030
      9 C         140.7201  144.9729  162.1809 C.ar    1  UNL1        0.0002
     10 C         140.5427  145.2168  160.7114 C.ar    1  UNL1        0.0031
     11 C         140.7948  144.1094  159.7316 C.ar    1  UNL1        0.0369
     12 C         141.2244  142.7581  160.2211 C.ar    1  UNL1        0.1386
     13 O         141.4765  141.6507  159.2413 O.3     1  UNL1       -0.4785
     14 C         142.3356  138.9483  160.2202 C.3     1  UNL1        0.0617
     15 C         142.5878  137.8409  159.2403 C.3     1  UNL1        0.0760
     16 C         142.0088  140.9191  163.6494 C.ar    1  UNL1       -0.0001
     17 C         143.3084  141.2625  164.3150 C.ar    1  UNL1        0.0001
     18 C         143.4859  141.0186  165.7844 C.ar    1  UNL1        0.0045
     19 C         142.3637  140.4313  166.5881 C.ar    1  UNL1        0.0536
     20 C         141.0641  140.0880  165.9223 C.ar    1  UNL1        0.0045
     21 C         140.8867  140.3319  164.4530 C.ar    1  UNL1        0.0001
     22 C         142.5411  140.1874  168.0574 C.2     1  UNL1        0.2490
     23 O         142.9600  138.8331  168.5477 O.2     1  UNL1       -0.2699
     24 N         142.2997  141.2979  169.0365 N.am    1  UNL1       -0.2761
     25 C         142.4771  141.0540  170.5059 C.3     1  UNL1        0.0938
     26 C         141.2803  141.0132  171.4093 C.3     1  UNL1        0.0233
     27 C         141.8808  142.6522  168.5462 C.3     1  UNL1        0.0938
     28 C         140.4241  142.9937  168.4395 C.3     1  UNL1        0.0233
     29 C         141.5255  136.4040  155.9985 C.3     1  UNL1        0.0188
     30 C         142.6625  136.9774  156.7911 C.3     1  UNL1        0.0721
@<TRIPOS>BOND
     1    29    30    1
     2    30     1    1
     3     1     2    1
     4     2     3    1
     5     3     4    1
     6     4     5    1
     7     5     6    2
     8     6    16    1
     9    16    17   ar
    10    17    18   ar
    11    18    19   ar
    12    19    22    1
    13    22    23    2
    14    22    24   am
    15    24    25    1
    16    25    26    1
    17    24    27    1
    18    27    28    1
    19    19    20   ar
    20    20    21   ar
    21     6     7    1
    22     7     8   ar
    23     8     9   ar
    24     9    10   ar
    25    10    11   ar
    26    11    12   ar
    27    12    13    1
    28     4    14    1
    29    14    15    1
    30    15     1    1
    31    13     4    1
    32    21    16   ar
    33    12     7   ar
