@<TRIPOS>MOLECULE
*****
 21 23 0 0 0
SMALL
GASTEIGER

@<TRIPOS>ATOM
      1 C         141.0685  140.7418  168.7394 C.3     1  UNL1        0.0831
      2 C         139.7903  139.9696  168.5991 C.3     1  UNL1        0.0423
      3 C         139.1542  139.8108  167.2500 C.3     1  UNL1        0.0973
      4 N         139.7964  140.4242  166.0411 N.pl3   1  UNL1       -0.2870
      5 C         141.0747  141.1964  166.1814 C.ar    1  UNL1        0.0488
      6 C         141.7169  141.8098  164.9725 C.ar    1  UNL1        0.0146
      7 C         142.9951  142.5820  165.1128 C.ar    1  UNL1        0.0013
      8 C         143.6312  142.7408  166.4620 C.ar    1  UNL1       -0.0002
      9 C         142.9890  142.1274  167.6708 C.ar    1  UNL1       -0.0017
     10 C         141.7108  141.3552  167.5305 C.ar    1  UNL1        0.0059
     11 C         139.1603  140.2653  164.6920 C.ar    1  UNL1        0.0525
     12 C         138.1053  141.2318  164.2417 C.ar    1  UNL1        0.0157
     13 C         137.4692  141.0730  162.8926 C.ar    1  UNL1        0.0135
     14 C         137.8882  139.9477  161.9937 C.ar    1  UNL1        0.0683
     15 CL        137.2521  139.7888  160.6446 Cl      1  UNL1       -0.0814
     16 C         138.9432  138.9811  162.4439 C.ar    1  UNL1        0.0694
     17 CL        139.3622  137.8558  161.5450 Cl      1  UNL1       -0.0813
     18 C         139.5793  139.1399  163.7931 C.ar    1  UNL1        0.0271
     19 C         142.7898  139.9600  170.5215 C.3     1  UNL1        0.0899
     20 N         141.7046  140.9007  170.0885 N.3     1  UNL1       -0.2678
     21 C         141.2554  142.0002  171.0047 C.3     1  UNL1        0.0899
@<TRIPOS>BOND
     1    19    20    1
     2    20    21    1
     3     1    20    1
     4     1     2    1
     5     2     3    1
     6     3     4    1
     7     4    11    1
     8    11    12   ar
     9    12    13   ar
    10    13    14   ar
    11    14    15    1
    12    14    16   ar
    13    16    17    1
    14    16    18   ar
    15     4     5    1
    16     5     6   ar
    17     6     7   ar
    18     7     8   ar
    19     8     9   ar
    20     9    10   ar
    21    10     1    1
    22    18    11   ar
    23    10     5   ar
@<TRIPOS>MOLECULE
*****
 21 23 0 0 0
SMALL
GASTEIGER

@<TRIPOS>ATOM
      1 C         140.0034  144.2817  162.8173 C.3     1  UNL1        0.0831
      2 C         138.7494  143.7914  163.4784 C.3     1  UNL1        0.0423
      3 C         138.8281  143.0528  164.7815 C.3     1  UNL1        0.0973
      4 N         140.1608  142.8045  165.4236 N.pl3   1  UNL1       -0.2870
      5 C         141.4149  143.2948  164.7625 C.ar    1  UNL1        0.0488
      6 C         142.7475  143.0465  165.4046 C.ar    1  UNL1        0.0146
      7 C         144.0015  143.5368  164.7435 C.ar    1  UNL1        0.0013
      8 C         143.9228  144.2754  163.4403 C.ar    1  UNL1       -0.0002
      9 C         142.5902  144.5237  162.7983 C.ar    1  UNL1       -0.0017
     10 C         141.3362  144.0334  163.4594 C.ar    1  UNL1        0.0059
     11 C         140.2395  142.0659  166.7268 C.ar    1  UNL1        0.0525
     12 C         140.3011  140.5672  166.7369 C.ar    1  UNL1        0.0157
     13 C         140.3797  139.8286  168.0401 C.ar    1  UNL1        0.0135
     14 C         140.3968  140.5886  169.3331 C.ar    1  UNL1        0.0683
     15 CL        140.4755  139.8500  170.6363 Cl      1  UNL1       -0.0814
     16 C         140.3352  142.0874  169.3230 C.ar    1  UNL1        0.0694
     17 CL        140.3523  142.8474  170.6161 Cl      1  UNL1       -0.0813
     18 C         140.2565  142.8260  168.0199 C.ar    1  UNL1        0.0271
     19 C         139.6218  146.4894  161.5017 C.3     1  UNL1        0.0899
     20 N         139.9247  145.0204  161.5141 N.3     1  UNL1       -0.2678
     21 C         140.1490  144.2899  160.2233 C.3     1  UNL1        0.0899
@<TRIPOS>BOND
     1    19    20    1
     2    20    21    1
     3     1    20    1
     4     1     2    1
     5     2     3    1
     6     3     4    1
     7     4    11    1
     8    11    12   ar
     9    12    13   ar
    10    13    14   ar
    11    14    15    1
    12    14    16   ar
    13    16    17    1
    14    16    18   ar
    15     4     5    1
    16     5     6   ar
    17     6     7   ar
    18     7     8   ar
    19     8     9   ar
    20     9    10   ar
    21    10     1    1
    22    18    11   ar
    23    10     5   ar
@<TRIPOS>MOLECULE
*****
 21 23 0 0 0
SMALL
GASTEIGER

@<TRIPOS>ATOM
      1 C         142.7432  139.3577  162.8255 C.3     1  UNL1        0.0831
      2 C         143.7486  140.1925  163.5617 C.3     1  UNL1        0.0423
      3 C         143.4993  140.5818  164.9887 C.3     1  UNL1        0.0973
      4 N         142.2445  140.1363  165.6794 N.pl3   1  UNL1       -0.2870
      5 C         141.2390  139.3014  164.9431 C.ar    1  UNL1        0.0488
      6 C         139.9843  138.8559  165.6338 C.ar    1  UNL1        0.0146
      7 C         138.9789  138.0211  164.8976 C.ar    1  UNL1        0.0013
      8 C         139.2282  137.6317  163.4706 C.ar    1  UNL1       -0.0002
      9 C         140.4830  138.0773  162.7799 C.ar    1  UNL1       -0.0017
     10 C         141.4884  138.9121  163.5162 C.ar    1  UNL1        0.0059
     11 C         141.9952  140.5257  167.1064 C.ar    1  UNL1        0.0525
     12 C         142.4437  139.6250  168.2189 C.ar    1  UNL1        0.0157
     13 C         142.1944  140.0144  169.6458 C.ar    1  UNL1        0.0135
     14 C         141.4966  141.3043  169.9603 C.ar    1  UNL1        0.0683
     15 CL        141.2472  141.6937  171.3873 Cl      1  UNL1       -0.0814
     16 C         141.0480  142.2050  168.8478 C.ar    1  UNL1        0.0694
     17 CL        140.3501  143.4950  169.1623 Cl      1  UNL1       -0.0813
     18 C         141.2973  141.8157  167.4208 C.ar    1  UNL1        0.0271
     19 C         143.7574  137.7167  161.0853 C.3     1  UNL1        0.0899
     20 N         142.9925  138.9683  161.3985 N.3     1  UNL1       -0.2678
     21 C         142.4768  139.8307  160.2847 C.3     1  UNL1        0.0899
@<TRIPOS>BOND
     1    19    20    1
     2    20    21    1
     3     1    20    1
     4     1     2    1
     5     2     3    1
     6     3     4    1
     7     4    11    1
     8    11    12   ar
     9    12    13   ar
    10    13    14   ar
    11    14    15    1
    12    14    16   ar
    13    16    17    1
    14    16    18   ar
    15     4     5    1
    16     5     6   ar
    17     6     7   ar
    18     7     8   ar
    19     8     9   ar
    20     9    10   ar
    21    10     1    1
    22    18    11   ar
    23    10     5   ar
@<TRIPOS>MOLECULE
*****
 21 23 0 0 0
SMALL
GASTEIGER

@<TRIPOS>ATOM
      1 C         140.8177  144.1514  162.8147 C.3     1  UNL1        0.0831
      2 C         142.0809  144.3302  163.6035 C.3     1  UNL1        0.0423
      3 C         142.3589  143.4482  164.7845 C.3     1  UNL1        0.0973
      4 N         141.3736  142.3874  165.1767 N.pl3   1  UNL1       -0.2870
      5 C         140.1103  142.2085  164.3879 C.ar    1  UNL1        0.0488
      6 C         139.1250  141.1477  164.7802 C.ar    1  UNL1        0.0146
      7 C         137.8618  140.9689  163.9914 C.ar    1  UNL1        0.0013
      8 C         137.5838  141.8509  162.8104 C.ar    1  UNL1       -0.0002
      9 C         138.5691  142.9117  162.4181 C.ar    1  UNL1       -0.0017
     10 C         139.8323  143.0905  163.2069 C.ar    1  UNL1        0.0059
     11 C         141.6516  141.5054  166.3578 C.ar    1  UNL1        0.0525
     12 C         142.4431  140.2435  166.1816 C.ar    1  UNL1        0.0157
     13 C         142.7210  139.3615  167.3627 C.ar    1  UNL1        0.0135
     14 C         142.2075  139.7414  168.7198 C.ar    1  UNL1        0.0683
     15 CL        142.4854  138.8594  169.9008 Cl      1  UNL1       -0.0814
     16 C         141.4159  141.0033  168.8960 C.ar    1  UNL1        0.0694
     17 CL        140.9024  141.3832  170.2531 Cl      1  UNL1       -0.0813
     18 C         141.1380  141.8853  167.7150 C.ar    1  UNL1        0.0271
     19 C         141.0488  144.6508  160.2756 C.3     1  UNL1        0.0899
     20 N         140.5398  145.0334  161.6337 N.3     1  UNL1       -0.2678
     21 C         139.7527  146.2980  161.8108 C.3     1  UNL1        0.0899
@<TRIPOS>BOND
     1    19    20    1
     2    20    21    1
     3     1    20    1
     4     1     2    1
     5     2     3    1
     6     3     4    1
     7     4    11    1
     8    11    12   ar
     9    12    13   ar
    10    13    14   ar
    11    14    15    1
    12    14    16   ar
    13    16    17    1
    14    16    18   ar
    15     4     5    1
    16     5     6   ar
    17     6     7   ar
    18     7     8   ar
    19     8     9   ar
    20     9    10   ar
    21    10     1    1
    22    18    11   ar
    23    10     5   ar
@<TRIPOS>MOLECULE
*****
 21 23 0 0 0
SMALL
GASTEIGER

@<TRIPOS>ATOM
      1 C         139.4102  140.9012  161.9637 C.3     1  UNL1        0.0831
      2 C         140.4597  139.9059  162.3610 C.3     1  UNL1        0.0423
      3 C         141.1370  140.0221  163.6944 C.3     1  UNL1        0.0973
      4 N         140.7648  141.1336  164.6303 N.pl3   1  UNL1       -0.2870
      5 C         139.7153  142.1290  164.2330 C.ar    1  UNL1        0.0488
      6 C         139.3432  143.2405  165.1689 C.ar    1  UNL1        0.0146
      7 C         138.2937  144.2358  164.7715 C.ar    1  UNL1        0.0013
      8 C         137.6164  144.1196  163.4382 C.ar    1  UNL1       -0.0002
      9 C         137.9885  143.0081  162.5023 C.ar    1  UNL1       -0.0017
     10 C         139.0380  142.0128  162.8996 C.ar    1  UNL1        0.0059
     11 C         141.4421  141.2498  165.9636 C.ar    1  UNL1        0.0525
     12 C         142.6038  142.1830  166.1360 C.ar    1  UNL1        0.0157
     13 C         143.2811  142.2992  167.4693 C.ar    1  UNL1        0.0135
     14 C         142.7968  141.4822  168.6303 C.ar    1  UNL1        0.0683
     15 CL        143.4741  141.5984  169.9636 Cl      1  UNL1       -0.0814
     16 C         141.6351  140.5489  168.4580 C.ar    1  UNL1        0.0694
     17 CL        141.1508  139.7319  169.6189 Cl      1  UNL1       -0.0813
     18 C         140.9578  140.4327  167.1246 C.ar    1  UNL1        0.0271
     19 C         139.2799  141.5228  159.4444 C.3     1  UNL1        0.0899
     20 N         138.7329  140.7850  160.6304 N.3     1  UNL1       -0.2678
     21 C         137.5085  139.9310  160.4830 C.3     1  UNL1        0.0899
@<TRIPOS>BOND
     1    19    20    1
     2    20    21    1
     3     1    20    1
     4     1     2    1
     5     2     3    1
     6     3     4    1
     7     4    11    1
     8    11    12   ar
     9    12    13   ar
    10    13    14   ar
    11    14    15    1
    12    14    16   ar
    13    16    17    1
    14    16    18   ar
    15     4     5    1
    16     5     6   ar
    17     6     7   ar
    18     7     8   ar
    19     8     9   ar
    20     9    10   ar
    21    10     1    1
    22    18    11   ar
    23    10     5   ar
@<TRIPOS>MOLECULE
*****
 21 23 0 0 0
SMALL
GASTEIGER

@<TRIPOS>ATOM
      1 C         141.4363  140.9460  168.1985 C.3     1  UNL1        0.0831
      2 C         142.5199  141.9115  167.8197 C.3     1  UNL1        0.0423
      3 C         142.5276  142.5325  166.4543 C.3     1  UNL1        0.0973
      4 N         141.4517  142.1879  165.4676 N.pl3   1  UNL1       -0.2870
      5 C         140.3680  141.2223  165.8463 C.ar    1  UNL1        0.0488
      6 C         139.2921  140.8778  164.8596 C.ar    1  UNL1        0.0146
      7 C         138.2085  139.9122  165.2383 C.ar    1  UNL1        0.0013
      8 C         138.2008  139.2913  166.6037 C.ar    1  UNL1       -0.0002
      9 C         139.2767  139.6358  167.5904 C.ar    1  UNL1       -0.0017
     10 C         140.3603  140.6014  167.2117 C.ar    1  UNL1        0.0059
     11 C         141.4594  142.8089  164.1022 C.ar    1  UNL1        0.0525
     12 C         142.1715  142.1266  162.9720 C.ar    1  UNL1        0.0157
     13 C         142.1792  142.7476  161.6066 C.ar    1  UNL1        0.0135
     14 C         141.4748  144.0508  161.3714 C.ar    1  UNL1        0.0683
     15 CL        141.4825  144.6718  160.0060 Cl      1  UNL1       -0.0814
     16 C         140.7627  144.7332  162.5017 C.ar    1  UNL1        0.0694
     17 CL        140.0583  146.0364  162.2664 Cl      1  UNL1       -0.0813
     18 C         140.7550  144.1122  163.8671 C.ar    1  UNL1        0.0271
     19 C         140.5702  140.9069  170.6476 C.3     1  UNL1        0.0899
     20 N         141.4286  140.3250  169.5639 N.3     1  UNL1       -0.2678
     21 C         142.2794  139.1221  169.8455 C.3     1  UNL1        0.0899
@<TRIPOS>BOND
     1    19    20    1
     2    20    21    1
     3     1    20    1
     4     1     2    1
     5     2     3    1
     6     3     4    1
     7     4    11    1
     8    11    12   ar
     9    12    13   ar
    10    13    14   ar
    11    14    15    1
    12    14    16   ar
    13    16    17    1
    14    16    18   ar
    15     4     5    1
    16     5     6   ar
    17     6     7   ar
    18     7     8   ar
    19     8     9   ar
    20     9    10   ar
    21    10     1    1
    22    18    11   ar
    23    10     5   ar
@<TRIPOS>MOLECULE
*****
 21 23 0 0 0
SMALL
GASTEIGER

@<TRIPOS>ATOM
      1 C         142.6417  139.0422  162.8689 C.3     1  UNL1        0.0831
      2 C         141.6717  138.3465  163.7774 C.3     1  UNL1        0.0423
      3 C         141.4869  138.8269  165.1863 C.3     1  UNL1        0.0973
      4 N         142.2719  140.0030  165.6868 N.pl3   1  UNL1       -0.2870
      5 C         143.2419  140.6987  164.7783 C.ar    1  UNL1        0.0488
      6 C         144.0269  141.8748  165.2788 C.ar    1  UNL1        0.0146
      7 C         144.9969  142.5704  164.3704 C.ar    1  UNL1        0.0013
      8 C         145.1817  142.0900  162.9615 C.ar    1  UNL1       -0.0002
      9 C         144.3967  140.9140  162.4610 C.ar    1  UNL1       -0.0017
     10 C         143.4268  140.2183  163.3694 C.ar    1  UNL1        0.0059
     11 C         142.0870  140.4834  167.0957 C.ar    1  UNL1        0.0525
     12 C         142.6918  139.7175  168.2347 C.ar    1  UNL1        0.0157
     13 C         142.5070  140.1979  169.6436 C.ar    1  UNL1        0.0135
     14 C         141.7172  141.4442  169.9135 C.ar    1  UNL1        0.0683
     15 CL        141.5324  141.9246  171.3224 Cl      1  UNL1       -0.0814
     16 C         141.1124  142.2103  168.7744 C.ar    1  UNL1        0.0694
     17 CL        140.3226  143.4566  169.0443 Cl      1  UNL1       -0.0813
     18 C         141.2972  141.7298  167.3655 C.ar    1  UNL1        0.0271
     19 C         141.8746  139.0004  160.3871 C.3     1  UNL1        0.0899
     20 N         142.8266  138.5618  161.4600 N.3     1  UNL1       -0.2678
     21 C         143.9635  137.6427  161.1241 C.3     1  UNL1        0.0899
@<TRIPOS>BOND
     1    19    20    1
     2    20    21    1
     3     1    20    1
     4     1     2    1
     5     2     3    1
     6     3     4    1
     7     4    11    1
     8    11    12   ar
     9    12    13   ar
    10    13    14   ar
    11    14    15    1
    12    14    16   ar
    13    16    17    1
    14    16    18   ar
    15     4     5    1
    16     5     6   ar
    17     6     7   ar
    18     7     8   ar
    19     8     9   ar
    20     9    10   ar
    21    10     1    1
    22    18    11   ar
    23    10     5   ar
@<TRIPOS>MOLECULE
*****
 21 23 0 0 0
SMALL
GASTEIGER

@<TRIPOS>ATOM
      1 C         139.1425  140.6310  162.6448 C.3     1  UNL1        0.0831
      2 C         138.7801  141.8334  163.4650 C.3     1  UNL1        0.0423
      3 C         139.1948  141.9121  164.9043 C.3     1  UNL1        0.0973
      4 N         139.9719  140.7885  165.5235 N.pl3   1  UNL1       -0.2870
      5 C         140.3343  139.5859  164.7033 C.ar    1  UNL1        0.0488
      6 C         141.1114  138.4623  165.3225 C.ar    1  UNL1        0.0146
      7 C         141.4738  137.2598  164.5023 C.ar    1  UNL1        0.0013
      8 C         141.0591  137.1811  163.0629 C.ar    1  UNL1       -0.0002
      9 C         140.2820  138.3047  162.4437 C.ar    1  UNL1       -0.0017
     10 C         139.9196  139.5072  163.2639 C.ar    1  UNL1        0.0059
     11 C         140.3865  140.8672  166.9629 C.ar    1  UNL1        0.0525
     12 C         139.5365  140.2338  168.0241 C.ar    1  UNL1        0.0157
     13 C         139.9511  140.3125  169.4634 C.ar    1  UNL1        0.0135
     14 C         141.2159  141.0247  169.8417 C.ar    1  UNL1        0.0683
     15 CL        141.6306  141.1035  171.2811 Cl      1  UNL1       -0.0814
     16 C         142.0661  141.6582  168.7805 C.ar    1  UNL1        0.0694
     17 CL        143.3308  142.3704  169.1588 Cl      1  UNL1       -0.0813
     18 C         141.6514  141.5795  167.3411 C.ar    1  UNL1        0.0271
     19 C         139.5868  141.1706  160.1425 C.3     1  UNL1        0.0899
     20 N         138.7278  140.5522  161.2054 N.3     1  UNL1       -0.2678
     21 C         137.4541  139.8550  160.8289 C.3     1  UNL1        0.0899
@<TRIPOS>BOND
     1    19    20    1
     2    20    21    1
     3     1    20    1
     4     1     2    1
     5     2     3    1
     6     3     4    1
     7     4    11    1
     8    11    12   ar
     9    12    13   ar
    10    13    14   ar
    11    14    15    1
    12    14    16   ar
    13    16    17    1
    14    16    18   ar
    15     4     5    1
    16     5     6   ar
    17     6     7   ar
    18     7     8   ar
    19     8     9   ar
    20     9    10   ar
    21    10     1    1
    22    18    11   ar
    23    10     5   ar
@<TRIPOS>MOLECULE
*****
 21 23 0 0 0
SMALL
GASTEIGER

@<TRIPOS>ATOM
      1 C         141.2476  141.9509  162.2340 C.3     1  UNL1        0.0831
      2 C         142.1388  140.8655  162.7608 C.3     1  UNL1        0.0423
      3 C         142.2741  140.6581  164.2403 C.3     1  UNL1        0.0973
      4 N         141.5182  141.5362  165.1929 N.pl3   1  UNL1       -0.2870
      5 C         140.6269  142.6217  164.6661 C.ar    1  UNL1        0.0488
      6 C         139.8711  143.4998  165.6187 C.ar    1  UNL1        0.0146
      7 C         138.9799  144.5853  165.0919 C.ar    1  UNL1        0.0013
      8 C         138.8446  144.7926  163.6125 C.ar    1  UNL1       -0.0002
      9 C         139.6004  143.9145  162.6598 C.ar    1  UNL1       -0.0017
     10 C         140.4916  142.8291  163.1867 C.ar    1  UNL1        0.0059
     11 C         141.6535  141.3289  166.6723 C.ar    1  UNL1        0.0525
     12 C         140.6778  140.4516  167.3990 C.ar    1  UNL1        0.0157
     13 C         140.8131  140.2443  168.8785 C.ar    1  UNL1        0.0135
     14 C         141.9241  140.9143  169.6312 C.ar    1  UNL1        0.0683
     15 CL        142.0594  140.7069  171.1106 Cl      1  UNL1       -0.0814
     16 C         142.8999  141.7916  168.9044 C.ar    1  UNL1        0.0694
     17 CL        144.0110  142.4616  169.6572 Cl      1  UNL1       -0.0813
     18 C         142.7646  141.9990  167.4250 C.ar    1  UNL1        0.0271
     19 C         142.0458  143.0892  160.0393 C.3     1  UNL1        0.0899
     20 N         141.1123  142.1582  160.7546 N.3     1  UNL1       -0.2678
     21 C         140.0434  141.4345  159.9905 C.3     1  UNL1        0.0899
@<TRIPOS>BOND
     1    19    20    1
     2    20    21    1
     3     1    20    1
     4     1     2    1
     5     2     3    1
     6     3     4    1
     7     4    11    1
     8    11    12   ar
     9    12    13   ar
    10    13    14   ar
    11    14    15    1
    12    14    16   ar
    13    16    17    1
    14    16    18   ar
    15     4     5    1
    16     5     6   ar
    17     6     7   ar
    18     7     8   ar
    19     8     9   ar
    20     9    10   ar
    21    10     1    1
    22    18    11   ar
    23    10     5   ar
