@<TRIPOS>MOLECULE
*****
 32 33 0 0 0
SMALL
GASTEIGER

@<TRIPOS>ATOM
      1 C         143.5139  143.0501  164.0563 C.ar    1  UNL1        0.0730
      2 C         142.5181  144.1699  164.1231 C.ar    1  UNL1        0.0322
      3 C         141.9561  144.7501  162.8591 C.ar    1  UNL1        0.0654
      4 C         142.3899  144.2106  161.5284 C.ar    1  UNL1        0.1133
      5 N         143.3857  143.0908  161.4617 N.ar    1  UNL1       -0.2367
      6 C         143.9478  142.5106  162.7255 C.ar    1  UNL1        0.1476
      7 C         144.9436  141.3909  162.6588 C.2     1  UNL1        0.2617
      8 N         144.6023  140.1262  161.9280 N.am    1  UNL1       -0.3240
      9 O         146.2808  141.5359  163.3228 O.2     1  UNL1       -0.2687
     10 H         143.7246  140.0310  161.4922 H       1  UNL1        0.1453
     11 H         145.2559  139.3913  161.8842 H       1  UNL1        0.1453
     12 N         144.0759  142.4699  165.3202 N.pl3   1  UNL1       -0.2966
     13 H         145.0402  142.2844  165.3904 H       1  UNL1        0.1537
     14 C         139.7767  140.2477  167.2119 C.3     1  UNL1        0.0312
     15 C         141.0191  141.0613  167.4230 C.ar    1  UNL1       -0.0179
     16 C         141.3543  141.5774  168.7909 C.ar    1  UNL1        0.0106
     17 C         142.5967  142.3910  169.0019 C.ar    1  UNL1        0.0605
     18 C         142.9319  142.9071  170.3700 C.3     1  UNL1        0.0521
     19 N         143.5039  142.6885  167.8451 N.ar    1  UNL1       -0.2349
     20 C         143.1687  142.1724  166.4771 C.ar    1  UNL1        0.1315
     21 C         141.9263  141.3588  166.2661 C.ar    1  UNL1        0.0301
     22 N         140.9602  145.8699  162.9258 N.pl3   1  UNL1       -0.3301
     23 H         141.2402  146.7595  163.2409 H       1  UNL1        0.1469
     24 C         139.5376  145.6340  162.5125 C.3     1  UNL1        0.1115
     25 C         138.7377  144.5457  163.1649 C.3     1  UNL1        0.1667
     26 N         137.5960  143.9097  162.4285 N.3     1  UNL1       -0.3140
     27 H         137.5070  144.3358  161.5061 H       1  UNL1        0.1191
     28 H         136.7326  144.0505  162.9529 H       1  UNL1        0.1191
     29 C         139.0793  144.0935  164.5537 C.3     1  UNL1        0.4117
     30 F         139.4208  143.6412  165.9426 F       1  UNL1       -0.1685
     31 F         139.5214  142.7662  164.0127 F       1  UNL1       -0.1685
     32 F         138.6371  145.4208  165.0947 F       1  UNL1       -0.1685
@<TRIPOS>BOND
     1    14    15    1
     2    15    16   ar
     3    16    17   ar
     4    17    18    1
     5    17    19   ar
     6    19    20   ar
     7    20    12    1
     8    12     1    1
     9     1     2   ar
    10     2     3   ar
    11     3    22    1
    12    22    24    1
    13    24    25    1
    14    25    26    1
    15    25    29    1
    16    29    30    1
    17    29    31    1
    18    29    32    1
    19     3     4   ar
    20     4     5   ar
    21     5     6   ar
    22     6     7    1
    23     7     8   am
    24     7     9    2
    25    20    21   ar
    26    21    15   ar
    27     6     1   ar
    28    12    13    1
    29    22    23    1
    30    26    27    1
    31    26    28    1
    32     8    10    1
    33     8    11    1
@<TRIPOS>MOLECULE
*****
 32 33 0 0 0
SMALL
GASTEIGER

@<TRIPOS>ATOM
      1 C         139.5192  141.0280  165.5675 C.ar    1  UNL1        0.0730
      2 C         140.0025  140.9314  166.9842 C.ar    1  UNL1        0.0322
      3 C         139.3707  139.9505  167.9270 C.ar    1  UNL1        0.0654
      4 C         138.2557  139.0663  167.4531 C.ar    1  UNL1        0.1133
      5 N         137.7723  139.1628  166.0364 N.ar    1  UNL1       -0.2367
      6 C         138.4041  140.1437  165.0936 C.ar    1  UNL1        0.1476
      7 C         137.9207  140.2402  163.6769 C.2     1  UNL1        0.2617
      8 N         136.9205  141.2910  163.2957 N.am    1  UNL1       -0.3240
      9 O         138.4376  139.2859  162.6414 O.2     1  UNL1       -0.2687
     10 H         136.5813  141.9174  163.9753 H       1  UNL1        0.1453
     11 H         136.6033  141.3544  162.3658 H       1  UNL1        0.1453
     12 N         140.1509  142.0088  164.6248 N.pl3   1  UNL1       -0.2966
     13 H         139.5909  142.6613  164.1452 H       1  UNL1        0.1537
     14 C         144.8660  143.9145  165.6908 C.3     1  UNL1        0.0312
     15 C         143.9933  142.9485  164.9457 C.ar    1  UNL1       -0.0179
     16 C         144.6055  141.9692  163.9885 C.ar    1  UNL1        0.0106
     17 C         143.7328  141.0031  163.2434 C.ar    1  UNL1        0.0605
     18 C         144.3451  140.0238  162.2862 C.3     1  UNL1        0.0521
     19 N         142.2480  141.0163  163.4555 N.ar    1  UNL1       -0.2349
     20 C         141.6358  141.9956  164.4127 C.ar    1  UNL1        0.1315
     21 C         142.5085  142.9617  165.1578 C.ar    1  UNL1        0.0301
     22 N         139.8541  139.8540  169.3437 N.pl3   1  UNL1       -0.3301
     23 H         139.8701  138.9817  169.8000 H       1  UNL1        0.1469
     24 C         140.3130  141.0864  170.0652 C.3     1  UNL1        0.1115
     25 C         141.7573  141.2426  170.4389 C.3     1  UNL1        0.1667
     26 N         142.2403  140.7726  171.7791 N.3     1  UNL1       -0.3140
     27 H         141.4594  140.3765  172.3022 H       1  UNL1        0.1191
     28 H         142.6305  141.5610  172.2955 H       1  UNL1        0.1191
     29 C         142.7186  141.8687  169.4726 C.3     1  UNL1        0.4117
     30 F         143.6799  142.4949  168.5061 F       1  UNL1       -0.1685
     31 F         142.4047  143.2224  170.0374 F       1  UNL1       -0.1685
     32 F         143.0324  140.5151  168.9077 F       1  UNL1       -0.1685
@<TRIPOS>BOND
     1    14    15    1
     2    15    16   ar
     3    16    17   ar
     4    17    18    1
     5    17    19   ar
     6    19    20   ar
     7    20    12    1
     8    12     1    1
     9     1     2   ar
    10     2     3   ar
    11     3    22    1
    12    22    24    1
    13    24    25    1
    14    25    26    1
    15    25    29    1
    16    29    30    1
    17    29    31    1
    18    29    32    1
    19     3     4   ar
    20     4     5   ar
    21     5     6   ar
    22     6     7    1
    23     7     8   am
    24     7     9    2
    25    20    21   ar
    26    21    15   ar
    27     6     1   ar
    28    12    13    1
    29    22    23    1
    30    26    27    1
    31    26    28    1
    32     8    10    1
    33     8    11    1
@<TRIPOS>MOLECULE
*****
 32 33 0 0 0
SMALL
GASTEIGER

@<TRIPOS>ATOM
      1 C         140.0269  140.0809  165.6556 C.ar    1  UNL1        0.0730
      2 C         140.2427  140.3002  167.1237 C.ar    1  UNL1        0.0322
      3 C         139.2330  139.7988  168.1133 C.ar    1  UNL1        0.0654
      4 C         138.0077  139.0780  167.6348 C.ar    1  UNL1        0.1133
      5 N         137.7919  138.8587  166.1667 N.ar    1  UNL1       -0.2367
      6 C         138.8015  139.3601  165.1771 C.ar    1  UNL1        0.1476
      7 C         138.5857  139.1408  163.7090 C.2     1  UNL1        0.2617
      8 N         137.9771  140.2252  162.8701 N.am    1  UNL1       -0.3240
      9 O         138.9784  137.8369  163.0798 O.2     1  UNL1       -0.2687
     10 H         137.7194  141.0809  163.2831 H       1  UNL1        0.1453
     11 H         137.8355  140.0812  161.9066 H       1  UNL1        0.1453
     12 N         141.0364  140.5823  164.6660 N.pl3   1  UNL1       -0.2966
     13 H         141.6955  139.9623  164.2781 H       1  UNL1        0.1537
     14 C         143.5873  145.0632  164.0225 C.3     1  UNL1        0.0312
     15 C         142.3173  144.2688  163.9456 C.ar    1  UNL1       -0.0179
     16 C         141.0527  144.9204  163.4701 C.ar    1  UNL1        0.0106
     17 C         139.7827  144.1260  163.3932 C.ar    1  UNL1        0.0605
     18 C         138.5180  144.7777  162.9177 C.3     1  UNL1        0.0521
     19 N         139.7772  142.6800  163.7918 N.ar    1  UNL1       -0.2349
     20 C         141.0418  142.0284  164.2673 C.ar    1  UNL1        0.1315
     21 C         142.3119  142.8228  164.3442 C.ar    1  UNL1        0.0301
     22 N         139.4488  140.0181  169.5814 N.pl3   1  UNL1       -0.3301
     23 H         138.6957  139.9262  170.2088 H       1  UNL1        0.1469
     24 C         140.8122  140.3775  170.0936 C.3     1  UNL1        0.1115
     25 C         141.0843  141.7662  170.5911 C.3     1  UNL1        0.1667
     26 N         141.8651  141.9703  171.8556 N.3     1  UNL1       -0.3140
     27 H         142.1296  141.0641  172.2419 H       1  UNL1        0.1191
     28 H         141.2913  142.4739  172.5320 H       1  UNL1        0.1191
     29 C         140.5758  142.9507  169.8242 C.3     1  UNL1        0.4117
     30 F         140.0672  144.1354  169.0573 F       1  UNL1       -0.1685
     31 F         141.7656  142.8723  168.9142 F       1  UNL1       -0.1685
     32 F         139.3860  143.0292  170.7343 F       1  UNL1       -0.1685
@<TRIPOS>BOND
     1    14    15    1
     2    15    16   ar
     3    16    17   ar
     4    17    18    1
     5    17    19   ar
     6    19    20   ar
     7    20    12    1
     8    12     1    1
     9     1     2   ar
    10     2     3   ar
    11     3    22    1
    12    22    24    1
    13    24    25    1
    14    25    26    1
    15    25    29    1
    16    29    30    1
    17    29    31    1
    18    29    32    1
    19     3     4   ar
    20     4     5   ar
    21     5     6   ar
    22     6     7    1
    23     7     8   am
    24     7     9    2
    25    20    21   ar
    26    21    15   ar
    27     6     1   ar
    28    12    13    1
    29    22    23    1
    30    26    27    1
    31    26    28    1
    32     8    10    1
    33     8    11    1
@<TRIPOS>MOLECULE
*****
 32 33 0 0 0
SMALL
GASTEIGER

@<TRIPOS>ATOM
      1 C         142.6285  142.0628  164.4312 C.ar    1  UNL1        0.0730
      2 C         141.5077  143.0417  164.6199 C.ar    1  UNL1        0.0322
      3 C         141.4960  144.3267  163.8461 C.ar    1  UNL1        0.0654
      4 C         142.6051  144.6328  162.8837 C.ar    1  UNL1        0.1133
      5 N         143.7259  143.6539  162.6951 N.ar    1  UNL1       -0.2367
      6 C         143.7376  142.3690  163.4688 C.ar    1  UNL1        0.1476
      7 C         144.8584  141.3901  163.2801 C.2     1  UNL1        0.2617
      8 N         146.2752  141.8150  163.5293 N.am    1  UNL1       -0.3240
      9 O         144.5624  139.9863  162.8423 O.2     1  UNL1       -0.2687
     10 H         146.4695  142.7364  163.8167 H       1  UNL1        0.1453
     11 H         147.0108  141.1725  163.4055 H       1  UNL1        0.1453
     12 N         142.6402  140.7779  165.2049 N.pl3   1  UNL1       -0.2966
     13 H         143.3261  140.0969  165.0178 H       1  UNL1        0.1537
     14 C         138.0343  138.8420  166.6324 C.3     1  UNL1        0.0312
     15 C         139.3039  139.5625  166.9774 C.ar    1  UNL1       -0.0179
     16 C         139.5401  140.0355  168.3811 C.ar    1  UNL1        0.0106
     17 C         140.8097  140.7560  168.7261 C.ar    1  UNL1        0.0605
     18 C         141.0459  141.2290  170.1299 C.3     1  UNL1        0.0521
     19 N         141.8431  141.0034  167.6674 N.ar    1  UNL1       -0.2349
     20 C         141.6068  140.5304  166.2637 C.ar    1  UNL1        0.1315
     21 C         140.3372  139.8099  165.9187 C.ar    1  UNL1        0.0301
     22 N         140.3752  145.3056  164.0347 N.pl3   1  UNL1       -0.3301
     23 H         140.5085  146.2554  163.8126 H       1  UNL1        0.1469
     24 C         139.0512  144.8373  164.5619 C.3     1  UNL1        0.1115
     25 C         138.1336  144.0399  163.6831 C.3     1  UNL1        0.1667
     26 N         137.4826  144.6862  162.4962 N.3     1  UNL1       -0.3140
     27 H         137.7733  145.6622  162.4385 H       1  UNL1        0.1191
     28 H         136.4687  144.6389  162.5969 H       1  UNL1        0.1191
     29 C         137.8671  142.5963  163.9910 C.3     1  UNL1        0.4117
     30 F         137.6005  141.1526  164.2990 F       1  UNL1       -0.1685
     31 F         138.4313  142.7859  165.3679 F       1  UNL1       -0.1685
     32 F         137.3029  142.4068  162.6142 F       1  UNL1       -0.1685
@<TRIPOS>BOND
     1    14    15    1
     2    15    16   ar
     3    16    17   ar
     4    17    18    1
     5    17    19   ar
     6    19    20   ar
     7    20    12    1
     8    12     1    1
     9     1     2   ar
    10     2     3   ar
    11     3    22    1
    12    22    24    1
    13    24    25    1
    14    25    26    1
    15    25    29    1
    16    29    30    1
    17    29    31    1
    18    29    32    1
    19     3     4   ar
    20     4     5   ar
    21     5     6   ar
    22     6     7    1
    23     7     8   am
    24     7     9    2
    25    20    21   ar
    26    21    15   ar
    27     6     1   ar
    28    12    13    1
    29    22    23    1
    30    26    27    1
    31    26    28    1
    32     8    10    1
    33     8    11    1
@<TRIPOS>MOLECULE
*****
 32 33 0 0 0
SMALL
GASTEIGER

@<TRIPOS>ATOM
      1 C         142.4316  142.5810  164.3632 C.ar    1  UNL1        0.0730
      2 C         141.1051  143.1590  164.7587 C.ar    1  UNL1        0.0322
      3 C         140.7140  144.5290  164.2892 C.ar    1  UNL1        0.0654
      4 C         141.6492  145.3209  163.4243 C.ar    1  UNL1        0.1133
      5 N         142.9757  144.7429  163.0288 N.ar    1  UNL1       -0.2367
      6 C         143.3669  143.3730  163.4982 C.ar    1  UNL1        0.1476
      7 C         144.6934  142.7951  163.1027 C.2     1  UNL1        0.2617
      8 N         145.1684  142.9093  161.6846 N.am    1  UNL1       -0.3240
      9 O         145.5448  142.1028  164.1255 O.2     1  UNL1       -0.2687
     10 H         144.6096  143.3636  161.0133 H       1  UNL1        0.1453
     11 H         146.0391  142.5300  161.4250 H       1  UNL1        0.1453
     12 N         142.8228  141.2112  164.8326 N.pl3   1  UNL1       -0.2966
     13 H         143.5061  141.1076  165.5338 H       1  UNL1        0.1537
     14 C         139.1366  137.5514  164.9681 C.3     1  UNL1        0.0312
     15 C         140.3299  138.1692  164.3014 C.ar    1  UNL1       -0.0179
     16 C         140.8733  137.5751  163.0359 C.ar    1  UNL1        0.0106
     17 C         142.0666  138.1929  162.3692 C.ar    1  UNL1        0.0605
     18 C         142.6100  137.5987  161.1036 C.3     1  UNL1        0.0521
     19 N         142.7164  139.4049  162.9681 N.ar    1  UNL1       -0.2349
     20 C         142.1730  139.9991  164.2336 C.ar    1  UNL1        0.1315
     21 C         140.9797  139.3813  164.9003 C.ar    1  UNL1        0.0301
     22 N         139.3875  145.1069  164.6847 N.pl3   1  UNL1       -0.3301
     23 H         139.3229  146.0514  164.9548 H       1  UNL1        0.1469
     24 C         138.1594  144.2457  164.6687 C.3     1  UNL1        0.1115
     25 C         137.8464  143.4081  163.4643 C.3     1  UNL1        0.1667
     26 N         137.6986  144.0547  162.1189 N.3     1  UNL1       -0.3140
     27 H         137.8420  145.0607  162.2075 H       1  UNL1        0.1191
     28 H         136.7621  143.8754  161.7566 H       1  UNL1        0.1191
     29 C         137.6814  141.9239  163.6054 C.3     1  UNL1        0.4117
     30 F         137.5163  140.4397  163.7465 F       1  UNL1       -0.1685
     31 F         137.3735  141.8190  162.1411 F       1  UNL1       -0.1685
     32 F         137.9893  142.0288  165.0697 F       1  UNL1       -0.1685
@<TRIPOS>BOND
     1    14    15    1
     2    15    16   ar
     3    16    17   ar
     4    17    18    1
     5    17    19   ar
     6    19    20   ar
     7    20    12    1
     8    12     1    1
     9     1     2   ar
    10     2     3   ar
    11     3    22    1
    12    22    24    1
    13    24    25    1
    14    25    26    1
    15    25    29    1
    16    29    30    1
    17    29    31    1
    18    29    32    1
    19     3     4   ar
    20     4     5   ar
    21     5     6   ar
    22     6     7    1
    23     7     8   am
    24     7     9    2
    25    20    21   ar
    26    21    15   ar
    27     6     1   ar
    28    12    13    1
    29    22    23    1
    30    26    27    1
    31    26    28    1
    32     8    10    1
    33     8    11    1
@<TRIPOS>MOLECULE
*****
 32 33 0 0 0
SMALL
GASTEIGER

@<TRIPOS>ATOM
      1 C         140.2566  140.5420  167.1251 C.ar    1  UNL1        0.0730
      2 C         139.9211  140.0821  165.7373 C.ar    1  UNL1        0.0322
      3 C         138.7677  139.1493  165.5146 C.ar    1  UNL1        0.0654
      4 C         137.9499  138.6763  166.6797 C.ar    1  UNL1        0.1133
      5 N         138.2854  139.1362  168.0675 N.ar    1  UNL1       -0.2367
      6 C         139.4387  140.0690  168.2902 C.ar    1  UNL1        0.1476
      7 C         139.7742  140.5288  169.6780 C.2     1  UNL1        0.2617
      8 N         140.1654  139.5289  170.7254 N.am    1  UNL1       -0.3240
      9 O         139.7186  141.9887  170.0183 O.2     1  UNL1       -0.2687
     10 H         140.2019  138.5708  170.5020 H       1  UNL1        0.1453
     11 H         140.3856  139.8307  171.6363 H       1  UNL1        0.1453
     12 N         141.4100  141.4748  167.3478 N.pl3   1  UNL1       -0.2966
     13 H         141.6766  141.7180  168.2638 H       1  UNL1        0.1537
     14 C         145.4067  141.2572  164.0344 C.3     1  UNL1        0.0312
     15 C         144.1555  141.9283  164.5182 C.ar    1  UNL1       -0.0179
     16 C         143.6514  143.1616  163.8292 C.ar    1  UNL1        0.0106
     17 C         142.4002  143.8327  164.3131 C.ar    1  UNL1        0.0605
     18 C         141.8961  145.0661  163.6240 C.3     1  UNL1        0.0521
     19 N         141.6530  143.2704  165.4859 N.ar    1  UNL1       -0.2349
     20 C         142.1571  142.0371  166.1749 C.ar    1  UNL1        0.1315
     21 C         143.4083  141.3660  165.6911 C.ar    1  UNL1        0.0301
     22 N         138.4322  138.6894  164.1268 N.pl3   1  UNL1       -0.3301
     23 H         137.7411  139.1591  163.6062 H       1  UNL1        0.1469
     24 C         139.1496  137.5138  163.5323 C.3     1  UNL1        0.1115
     25 C         140.5512  137.6705  163.0215 C.3     1  UNL1        0.1667
     26 N         140.8121  137.7023  161.5447 N.3     1  UNL1       -0.3140
     27 H         139.9302  137.6052  161.0414 H       1  UNL1        0.1191
     28 H         141.4337  136.9339  161.2926 H       1  UNL1        0.1191
     29 C         141.6919  137.7955  163.9875 C.3     1  UNL1        0.4117
     30 F         142.8326  137.9204  164.9535 F       1  UNL1       -0.1685
     31 F         142.1568  139.0329  163.2785 F       1  UNL1       -0.1685
     32 F         141.2270  136.5581  164.6965 F       1  UNL1       -0.1685
@<TRIPOS>BOND
     1    14    15    1
     2    15    16   ar
     3    16    17   ar
     4    17    18    1
     5    17    19   ar
     6    19    20   ar
     7    20    12    1
     8    12     1    1
     9     1     2   ar
    10     2     3   ar
    11     3    22    1
    12    22    24    1
    13    24    25    1
    14    25    26    1
    15    25    29    1
    16    29    30    1
    17    29    31    1
    18    29    32    1
    19     3     4   ar
    20     4     5   ar
    21     5     6   ar
    22     6     7    1
    23     7     8   am
    24     7     9    2
    25    20    21   ar
    26    21    15   ar
    27     6     1   ar
    28    12    13    1
    29    22    23    1
    30    26    27    1
    31    26    28    1
    32     8    10    1
    33     8    11    1
@<TRIPOS>MOLECULE
*****
 32 33 0 0 0
SMALL
GASTEIGER

@<TRIPOS>ATOM
      1 C         141.1719  143.2628  163.5722 C.ar    1  UNL1        0.0730
      2 C         142.3618  142.5991  164.1995 C.ar    1  UNL1        0.0322
      3 C         143.7476  143.0305  163.8205 C.ar    1  UNL1        0.0654
      4 C         143.9434  144.1255  162.8144 C.ar    1  UNL1        0.1133
      5 N         142.7535  144.7893  162.1871 N.ar    1  UNL1       -0.2367
      6 C         141.3677  144.3579  162.5660 C.ar    1  UNL1        0.1476
      7 C         140.1778  145.0217  161.9387 C.2     1  UNL1        0.2617
      8 N         139.9890  146.5038  162.0716 N.am    1  UNL1       -0.3240
      9 O         139.1766  144.2032  161.1785 O.2     1  UNL1       -0.2687
     10 H         140.6461  147.0409  162.5705 H       1  UNL1        0.1453
     11 H         139.2080  146.9394  161.6599 H       1  UNL1        0.1453
     12 N         139.7861  142.8315  163.9511 N.pl3   1  UNL1       -0.2966
     13 H         139.0864  143.5059  164.1085 H       1  UNL1        0.1537
     14 C         137.9236  138.8814  166.7667 C.3     1  UNL1        0.0312
     15 C         138.5351  139.3975  165.4980 C.ar    1  UNL1       -0.0179
     16 C         138.8270  138.4548  164.3684 C.ar    1  UNL1        0.0106
     17 C         139.4385  138.9709  163.0997 C.ar    1  UNL1        0.0605
     18 C         139.7304  138.0281  161.9701 C.3     1  UNL1        0.0521
     19 N         139.7582  140.4298  162.9606 N.ar    1  UNL1       -0.2349
     20 C         139.4664  141.3725  164.0902 C.ar    1  UNL1        0.1315
     21 C         138.8548  140.8564  165.3589 C.ar    1  UNL1        0.0301
     22 N         144.9376  142.3667  164.4478 N.pl3   1  UNL1       -0.3301
     23 H         145.2919  142.6989  165.3042 H       1  UNL1        0.1469
     24 C         145.5876  141.1969  163.7703 C.3     1  UNL1        0.1115
     25 C         144.7684  139.9980  163.3941 C.3     1  UNL1        0.1667
     26 N         144.5749  139.6453  161.9489 N.3     1  UNL1       -0.3140
     27 H         145.0658  140.3224  161.3651 H       1  UNL1        0.1191
     28 H         143.5799  139.6617  161.7253 H       1  UNL1        0.1191
     29 C         144.1428  139.1517  164.4628 C.3     1  UNL1        0.4117
     30 F         143.5172  138.3053  165.5317 F       1  UNL1       -0.1685
     31 F         142.7900  139.3913  163.8607 F       1  UNL1       -0.1685
     32 F         145.4956  138.9121  165.0650 F       1  UNL1       -0.1685
@<TRIPOS>BOND
     1    14    15    1
     2    15    16   ar
     3    16    17   ar
     4    17    18    1
     5    17    19   ar
     6    19    20   ar
     7    20    12    1
     8    12     1    1
     9     1     2   ar
    10     2     3   ar
    11     3    22    1
    12    22    24    1
    13    24    25    1
    14    25    26    1
    15    25    29    1
    16    29    30    1
    17    29    31    1
    18    29    32    1
    19     3     4   ar
    20     4     5   ar
    21     5     6   ar
    22     6     7    1
    23     7     8   am
    24     7     9    2
    25    20    21   ar
    26    21    15   ar
    27     6     1   ar
    28    12    13    1
    29    22    23    1
    30    26    27    1
    31    26    28    1
    32     8    10    1
    33     8    11    1
@<TRIPOS>MOLECULE
*****
 32 33 0 0 0
SMALL
GASTEIGER

@<TRIPOS>ATOM
      1 C         140.3988  140.3532  166.8787 C.ar    1  UNL1        0.0730
      2 C         140.2305  139.7772  165.5040 C.ar    1  UNL1        0.0322
      3 C         139.0756  138.8668  165.2085 C.ar    1  UNL1        0.0654
      4 C         138.0889  138.5325  166.2876 C.ar    1  UNL1        0.1133
      5 N         138.2571  139.1085  167.6624 N.ar    1  UNL1       -0.2367
      6 C         139.4121  140.0189  167.9579 C.ar    1  UNL1        0.1476
      7 C         139.5803  140.5949  169.3326 C.2     1  UNL1        0.2617
      8 N         139.2238  139.7760  170.5377 N.am    1  UNL1       -0.3240
      9 O         140.1051  141.9899  169.5022 O.2     1  UNL1       -0.2687
     10 H         138.8794  138.8604  170.4264 H       1  UNL1        0.1453
     11 H         139.3343  140.1541  171.4400 H       1  UNL1        0.1453
     12 N         141.5537  141.2636  167.1742 N.pl3   1  UNL1       -0.2966
     13 H         141.8568  141.3887  168.1025 H       1  UNL1        0.1537
     14 C         141.6640  145.1127  163.6854 C.3     1  UNL1        0.0312
     15 C         142.3019  143.9079  164.3111 C.ar    1  UNL1       -0.0179
     16 C         143.6329  143.4228  163.8179 C.ar    1  UNL1        0.0106
     17 C         144.2708  142.2179  164.4436 C.ar    1  UNL1        0.0605
     18 C         145.6018  141.7328  163.9504 C.3     1  UNL1        0.0521
     19 N         143.5778  141.4982  165.5623 N.ar    1  UNL1       -0.2349
     20 C         142.2468  141.9833  166.0554 C.ar    1  UNL1        0.1315
     21 C         141.6089  143.1882  165.4298 C.ar    1  UNL1        0.0301
     22 N         138.9073  138.2908  163.8337 N.pl3   1  UNL1       -0.3301
     23 H         139.3313  137.4324  163.6044 H       1  UNL1        0.1469
     24 C         138.0929  139.0226  162.8084 C.3     1  UNL1        0.1115
     25 C         138.0653  140.5224  162.8036 C.3     1  UNL1        0.1667
     26 N         136.7996  141.2503  163.1472 N.3     1  UNL1       -0.3140
     27 H         136.0646  140.5745  163.3558 H       1  UNL1        0.1191
     28 H         136.5150  141.8291  162.3570 H       1  UNL1        0.1191
     29 C         139.3034  141.2942  162.4552 C.3     1  UNL1        0.4117
     30 F         140.5416  142.0660  162.1069 F       1  UNL1       -0.1685
     31 F         139.6070  140.3136  161.3615 F       1  UNL1       -0.1685
     32 F         138.9999  142.2748  163.5489 F       1  UNL1       -0.1685
@<TRIPOS>BOND
     1    14    15    1
     2    15    16   ar
     3    16    17   ar
     4    17    18    1
     5    17    19   ar
     6    19    20   ar
     7    20    12    1
     8    12     1    1
     9     1     2   ar
    10     2     3   ar
    11     3    22    1
    12    22    24    1
    13    24    25    1
    14    25    26    1
    15    25    29    1
    16    29    30    1
    17    29    31    1
    18    29    32    1
    19     3     4   ar
    20     4     5   ar
    21     5     6   ar
    22     6     7    1
    23     7     8   am
    24     7     9    2
    25    20    21   ar
    26    21    15   ar
    27     6     1   ar
    28    12    13    1
    29    22    23    1
    30    26    27    1
    31    26    28    1
    32     8    10    1
    33     8    11    1
@<TRIPOS>MOLECULE
*****
 32 33 0 0 0
SMALL
GASTEIGER

@<TRIPOS>ATOM
      1 C         143.5358  141.5196  165.3379 C.ar    1  UNL1        0.0730
      2 C         142.7904  141.3286  166.6255 C.ar    1  UNL1        0.0322
      3 C         142.6638  139.9584  167.2227 C.ar    1  UNL1        0.0654
      4 C         143.2825  138.7793  166.5322 C.ar    1  UNL1        0.1133
      5 N         144.0279  138.9702  165.2446 N.ar    1  UNL1       -0.2367
      6 C         144.1546  140.3403  164.6475 C.ar    1  UNL1        0.1476
      7 C         144.9000  140.5313  163.3599 C.2     1  UNL1        0.2617
      8 N         144.5853  139.6661  162.1757 N.am    1  UNL1       -0.3240
      9 O         145.9601  141.5875  163.2565 O.2     1  UNL1       -0.2687
     10 H         143.8895  138.9729  162.2435 H       1  UNL1        0.1453
     11 H         145.0745  139.7915  161.3306 H       1  UNL1        0.1453
     12 N         143.6625  142.8897  164.7407 N.pl3   1  UNL1       -0.2966
     13 H         144.5270  143.3602  164.7672 H       1  UNL1        0.1537
     14 C         141.3401  144.9018  160.5505 C.3     1  UNL1        0.0312
     15 C         141.3110  144.5491  162.0082 C.ar    1  UNL1       -0.0179
     16 C         140.0917  144.8497  162.8284 C.ar    1  UNL1        0.0106
     17 C         140.0626  144.4971  164.2861 C.ar    1  UNL1        0.0605
     18 C         138.8432  144.7977  165.1063 C.3     1  UNL1        0.0521
     19 N         141.2529  143.8437  164.9235 N.ar    1  UNL1       -0.2349
     20 C         142.4722  143.5431  164.1033 C.ar    1  UNL1        0.1315
     21 C         142.5013  143.8958  162.6456 C.ar    1  UNL1        0.0301
     22 N         141.9184  139.7674  168.5103 N.pl3   1  UNL1       -0.3301
     23 H         141.1888  139.1085  168.5637 H       1  UNL1        0.1469
     24 C         142.2845  140.5805  169.7165 C.3     1  UNL1        0.1115
     25 C         141.2257  141.3424  170.4570 C.3     1  UNL1        0.1667
     26 N         140.7047  140.8241  171.7647 N.3     1  UNL1       -0.3140
     27 H         141.1776  139.9507  171.9970 H       1  UNL1        0.1191
     28 H         139.7012  140.6576  171.6890 H       1  UNL1        0.1191
     29 C         140.6878  142.6226  169.8898 C.3     1  UNL1        0.4117
     30 F         140.1499  143.9029  169.3226 F       1  UNL1       -0.1685
     31 F         139.3034  142.2275  170.3109 F       1  UNL1       -0.1685
     32 F         142.0722  143.0177  169.4688 F       1  UNL1       -0.1685
@<TRIPOS>BOND
     1    14    15    1
     2    15    16   ar
     3    16    17   ar
     4    17    18    1
     5    17    19   ar
     6    19    20   ar
     7    20    12    1
     8    12     1    1
     9     1     2   ar
    10     2     3   ar
    11     3    22    1
    12    22    24    1
    13    24    25    1
    14    25    26    1
    15    25    29    1
    16    29    30    1
    17    29    31    1
    18    29    32    1
    19     3     4   ar
    20     4     5   ar
    21     5     6   ar
    22     6     7    1
    23     7     8   am
    24     7     9    2
    25    20    21   ar
    26    21    15   ar
    27     6     1   ar
    28    12    13    1
    29    22    23    1
    30    26    27    1
    31    26    28    1
    32     8    10    1
    33     8    11    1
