@<TRIPOS>MOLECULE
*****
 33 36 0 0 0
SMALL
GASTEIGER

@<TRIPOS>ATOM
      1 C         142.2724  140.1627  164.3134 C.2     1  UNL1        0.1397
      2 C         142.7073  140.4472  162.9064 C.2     1  UNL1        0.1355
      3 N         142.2154  141.6777  162.2036 N.pl3   1  UNL1       -0.1989
      4 C         141.2886  142.6237  162.9079 C.2     1  UNL1        0.3548
      5 N         140.8537  142.3392  164.3150 N.2     1  UNL1       -0.0571
      6 C         141.3456  141.1087  165.0178 C.3     1  UNL1        0.2692
      7 H         142.5008  141.8644  161.2801 H       1  UNL1        0.2983
      8 C         140.9107  140.8242  166.4249 C.ar    1  UNL1        0.0371
      9 C         139.6602  140.0356  166.6784 C.ar    1  UNL1        0.0030
     10 C         139.2253  139.7511  168.0855 C.ar    1  UNL1        0.0295
     11 C         140.0408  140.2553  169.2391 C.ar    1  UNL1        0.1406
     12 F         139.6059  139.9708  170.6462 F       1  UNL1       -0.2042
     13 C         141.2913  141.0439  168.9856 C.ar    1  UNL1        0.0362
     14 C         141.7263  141.3284  167.5784 C.ar    1  UNL1        0.0372
     15 BR        142.9768  142.1171  167.3249 Br      1  UNL1       -0.0491
     16 C         140.7967  143.8542  162.2052 C.ar    1  UNL1        0.2279
     17 N         141.2187  144.3198  160.8431 N.ar    1  UNL1       -0.2186
     18 C         140.4792  145.5885  160.5372 C.ar    1  UNL1        0.1194
     19 C         139.6003  145.9071  161.7102 C.ar    1  UNL1        0.0982
     20 N         139.7965  144.8352  162.7410 N.ar    1  UNL1       -0.3023
     21 C         139.1125  144.7580  164.0738 C.3     1  UNL1        0.1322
     22 C         142.7643  138.9322  165.0162 C.2     1  UNL1        0.3447
     23 O         144.1260  138.9214  165.6451 O.2     1  UNL1       -0.2450
     24 O         141.8945  137.7124  165.0901 O.3     1  UNL1       -0.4455
     25 C         139.6446  137.6321  163.7933 C.3     1  UNL1        0.0513
     26 C         141.1003  137.2838  163.8919 C.3     1  UNL1        0.2089
     27 C         143.6341  139.5011  162.2020 C.3     1  UNL1        0.1405
     28 N         143.4460  139.2149  160.7416 N.3     1  UNL1       -0.2617
     29 C         142.7886  137.9390  160.3060 C.3     1  UNL1        0.1050
     30 C         142.6005  137.6528  158.8456 C.3     1  UNL1        0.1595
     31 O         143.0697  138.6426  157.8209 O.3     1  UNL1       -0.3508
     32 C         143.7271  139.9185  158.2565 C.3     1  UNL1        0.1595
     33 C         143.9152  140.2047  159.7168 C.3     1  UNL1        0.1050
@<TRIPOS>BOND
     1    25    26    1
     2    26    24    1
     3    24    22    1
     4    22    23    2
     5    22     1    1
     6     1     2    2
     7     2    27    1
     8    27    28    1
     9    28    29    1
    10    29    30    1
    11    30    31    1
    12    31    32    1
    13    32    33    1
    14     2     3    1
    15     3     4    1
    16     4    16    1
    17    16    17   ar
    18    17    18   ar
    19    18    19   ar
    20    19    20   ar
    21    20    21    1
    22     4     5    2
    23     5     6    1
    24     6     8    1
    25     8     9   ar
    26     9    10   ar
    27    10    11   ar
    28    11    12    1
    29    11    13   ar
    30    13    14   ar
    31    14    15    1
    32     6     1    1
    33    14     8   ar
    34    33    28    1
    35    20    16   ar
    36     3     7    1
@<TRIPOS>MOLECULE
*****
 33 36 0 0 0
SMALL
GASTEIGER

@<TRIPOS>ATOM
      1 C         140.1753  139.7148  164.2633 C.2     1  UNL1        0.1397
      2 C         140.0166  139.8516  162.7780 C.2     1  UNL1        0.1355
      3 N         139.9749  141.2133  162.1504 N.pl3   1  UNL1       -0.1989
      4 C         140.0919  142.4383  163.0081 C.2     1  UNL1        0.3548
      5 N         140.2505  142.3016  164.4933 N.2     1  UNL1       -0.0571
      6 C         140.2922  140.9398  165.1210 C.3     1  UNL1        0.2692
      7 H         139.8708  141.3030  161.1755 H       1  UNL1        0.2983
      8 C         140.4508  140.8031  166.6063 C.ar    1  UNL1        0.0371
      9 C         139.3377  140.2256  167.4294 C.ar    1  UNL1        0.0030
     10 C         139.4963  140.0888  168.9147 C.ar    1  UNL1        0.0295
     11 C         140.7680  140.5297  169.5770 C.ar    1  UNL1        0.1406
     12 F         140.9266  140.3930  171.0622 F       1  UNL1       -0.2042
     13 C         141.8811  141.1073  168.7539 C.ar    1  UNL1        0.0362
     14 C         141.7224  141.2440  167.2685 C.ar    1  UNL1        0.0372
     15 BR        142.8355  141.8216  166.4454 Br      1  UNL1       -0.0491
     16 C         140.0502  143.8001  162.3805 C.ar    1  UNL1        0.2279
     17 N         139.1001  144.9055  162.7347 N.ar    1  UNL1       -0.2186
     18 C         139.4140  146.0841  161.8616 C.ar    1  UNL1        0.1194
     19 C         140.5580  145.7071  160.9677 C.ar    1  UNL1        0.0982
     20 N         140.9512  144.2955  161.2884 N.ar    1  UNL1       -0.3023
     21 C         142.0521  143.5162  160.6321 C.3     1  UNL1        0.1322
     22 C         140.2170  138.3531  164.8909 C.2     1  UNL1        0.3447
     23 O         138.9523  137.7164  165.3860 O.2     1  UNL1       -0.2450
     24 O         141.5233  137.6280  165.0234 O.3     1  UNL1       -0.4455
     25 C         143.7431  138.2393  166.2272 C.3     1  UNL1        0.0513
     26 C         142.8088  138.4000  165.0647 C.3     1  UNL1        0.2089
     27 C         139.8997  138.6265  161.9203 C.3     1  UNL1        0.1405
     28 N         140.9417  138.3363  160.8811 N.3     1  UNL1       -0.2617
     29 C         140.6442  138.5821  159.4316 C.3     1  UNL1        0.1050
     30 C         141.6863  138.2919  158.3923 C.3     1  UNL1        0.1595
     31 O         143.0258  137.7559  158.8027 O.3     1  UNL1       -0.3508
     32 C         143.3233  137.5101  160.2522 C.3     1  UNL1        0.1595
     33 C         142.2813  137.8003  161.2914 C.3     1  UNL1        0.1050
@<TRIPOS>BOND
     1    25    26    1
     2    26    24    1
     3    24    22    1
     4    22    23    2
     5    22     1    1
     6     1     2    2
     7     2    27    1
     8    27    28    1
     9    28    29    1
    10    29    30    1
    11    30    31    1
    12    31    32    1
    13    32    33    1
    14     2     3    1
    15     3     4    1
    16     4    16    1
    17    16    17   ar
    18    17    18   ar
    19    18    19   ar
    20    19    20   ar
    21    20    21    1
    22     4     5    2
    23     5     6    1
    24     6     8    1
    25     8     9   ar
    26     9    10   ar
    27    10    11   ar
    28    11    12    1
    29    11    13   ar
    30    13    14   ar
    31    14    15    1
    32     6     1    1
    33    14     8   ar
    34    33    28    1
    35    20    16   ar
    36     3     7    1
@<TRIPOS>MOLECULE
*****
 33 36 0 0 0
SMALL
GASTEIGER

@<TRIPOS>ATOM
      1 C         139.8421  141.1928  160.7442 C.2     1  UNL1        0.1397
      2 C         139.9881  140.4586  159.4443 C.2     1  UNL1        0.1355
      3 N         139.3554  141.0053  158.1990 N.pl3   1  UNL1       -0.1989
      4 C         138.5766  142.2861  158.2535 C.2     1  UNL1        0.3548
      5 N         138.4306  143.0202  159.5534 N.2     1  UNL1       -0.0571
      6 C         139.0633  142.4735  160.7987 C.3     1  UNL1        0.2692
      7 H         139.4512  140.5234  157.3458 H       1  UNL1        0.2983
      8 C         138.9172  143.2077  162.0986 C.ar    1  UNL1        0.0371
      9 C         137.7916  142.8674  163.0298 C.ar    1  UNL1        0.0030
     10 C         137.6455  143.6016  164.3296 C.ar    1  UNL1        0.0295
     11 C         138.6251  144.6761  164.6984 C.ar    1  UNL1        0.1406
     12 F         138.4790  145.4102  165.9982 F       1  UNL1       -0.2042
     13 C         139.7507  145.0164  163.7672 C.ar    1  UNL1        0.0362
     14 C         139.8968  144.2822  162.4673 C.ar    1  UNL1        0.0372
     15 BR        141.0224  144.6225  161.5361 Br      1  UNL1       -0.0491
     16 C         137.9438  142.8328  157.0082 C.ar    1  UNL1        0.2279
     17 N         138.3419  144.0918  156.2966 N.ar    1  UNL1       -0.2186
     18 C         137.4460  144.2535  155.1045 C.ar    1  UNL1        0.1194
     19 C         136.4942  143.0945  155.0793 C.ar    1  UNL1        0.0982
     20 N         136.8019  142.2164  156.2559 N.ar    1  UNL1       -0.3023
     21 C         136.0922  140.9451  156.6167 C.3     1  UNL1        0.1322
     22 C         140.4748  140.6461  161.9895 C.2     1  UNL1        0.3447
     23 O         141.7829  141.1999  162.4713 O.2     1  UNL1       -0.2450
     24 O         139.7995  139.5456  162.7529 O.3     1  UNL1       -0.4455
     25 C         137.8209  138.1788  161.7694 C.3     1  UNL1        0.0513
     26 C         138.3242  139.3224  162.5996 C.3     1  UNL1        0.2089
     27 C         140.7669  139.1778  159.3897 C.3     1  UNL1        0.1405
     28 N         141.8627  139.0088  158.3794 N.3     1  UNL1       -0.2617
     29 C         142.8286  140.1281  158.1263 C.3     1  UNL1        0.1050
     30 C         143.9244  139.9590  157.1159 C.3     1  UNL1        0.1595
     31 O         144.0542  138.6707  156.3588 O.3     1  UNL1       -0.3508
     32 C         143.0883  137.5514  156.6119 C.3     1  UNL1        0.1595
     33 C         141.9925  137.7204  157.6222 C.3     1  UNL1        0.1050
@<TRIPOS>BOND
     1    25    26    1
     2    26    24    1
     3    24    22    1
     4    22    23    2
     5    22     1    1
     6     1     2    2
     7     2    27    1
     8    27    28    1
     9    28    29    1
    10    29    30    1
    11    30    31    1
    12    31    32    1
    13    32    33    1
    14     2     3    1
    15     3     4    1
    16     4    16    1
    17    16    17   ar
    18    17    18   ar
    19    18    19   ar
    20    19    20   ar
    21    20    21    1
    22     4     5    2
    23     5     6    1
    24     6     8    1
    25     8     9   ar
    26     9    10   ar
    27    10    11   ar
    28    11    12    1
    29    11    13   ar
    30    13    14   ar
    31    14    15    1
    32     6     1    1
    33    14     8   ar
    34    33    28    1
    35    20    16   ar
    36     3     7    1
@<TRIPOS>MOLECULE
*****
 33 36 0 0 0
SMALL
GASTEIGER

@<TRIPOS>ATOM
      1 C         139.9687  141.2468  160.9755 C.2     1  UNL1        0.1397
      2 C         140.1568  140.5160  159.6791 C.2     1  UNL1        0.1355
      3 N         139.5198  141.0371  158.4251 N.pl3   1  UNL1       -0.1989
      4 C         138.6947  142.2891  158.4674 C.2     1  UNL1        0.3548
      5 N         138.5066  143.0199  159.7637 N.2     1  UNL1       -0.0571
      6 C         139.1436  142.4987  161.0177 C.3     1  UNL1        0.2692
      7 H         139.6433  140.5575  157.5742 H       1  UNL1        0.2983
      8 C         138.9555  143.2296  162.3141 C.ar    1  UNL1        0.0371
      9 C         137.8161  142.8682  163.2203 C.ar    1  UNL1        0.0030
     10 C         137.6279  143.5990  164.5166 C.ar    1  UNL1        0.0295
     11 C         138.5792  144.6912  164.9068 C.ar    1  UNL1        0.1406
     12 F         138.3910  145.4220  166.2032 F       1  UNL1       -0.2042
     13 C         139.7186  145.0526  164.0006 C.ar    1  UNL1        0.0362
     14 C         139.9067  144.3217  162.7043 C.ar    1  UNL1        0.0372
     15 BR        141.0461  144.6831  161.7981 Br      1  UNL1       -0.0491
     16 C         138.0577  142.8102  157.2133 C.ar    1  UNL1        0.2279
     17 N         136.7947  142.2976  156.5872 N.ar    1  UNL1       -0.2186
     18 C         136.5283  143.1060  155.3521 C.ar    1  UNL1        0.1194
     19 C         137.6266  144.1184  155.2149 C.ar    1  UNL1        0.0982
     20 N         138.5718  143.9356  156.3652 N.ar    1  UNL1       -0.3023
     21 C         139.8132  144.7373  156.6222 C.3     1  UNL1        0.1322
     22 C         140.6057  140.7256  162.2295 C.2     1  UNL1        0.3447
     23 O         141.9076  141.2999  162.7039 O.2     1  UNL1       -0.2450
     24 O         139.9407  139.6302  163.0091 O.3     1  UNL1       -0.4455
     25 C         138.0778  138.1487  161.9676 C.3     1  UNL1        0.0513
     26 C         138.4865  139.3324  162.7934 C.3     1  UNL1        0.2089
     27 C         140.9819  139.2640  159.6368 C.3     1  UNL1        0.1405
     28 N         141.9850  139.0636  158.5397 N.3     1  UNL1       -0.2617
     29 C         142.0031  137.7790  157.7655 C.3     1  UNL1        0.1050
     30 C         143.0063  137.5786  156.6683 C.3     1  UNL1        0.1595
     31 O         143.9913  138.6628  156.3456 O.3     1  UNL1       -0.3508
     32 C         143.9732  139.9474  157.1199 C.3     1  UNL1        0.1595
     33 C         142.9701  140.1478  158.2169 C.3     1  UNL1        0.1050
@<TRIPOS>BOND
     1    25    26    1
     2    26    24    1
     3    24    22    1
     4    22    23    2
     5    22     1    1
     6     1     2    2
     7     2    27    1
     8    27    28    1
     9    28    29    1
    10    29    30    1
    11    30    31    1
    12    31    32    1
    13    32    33    1
    14     2     3    1
    15     3     4    1
    16     4    16    1
    17    16    17   ar
    18    17    18   ar
    19    18    19   ar
    20    19    20   ar
    21    20    21    1
    22     4     5    2
    23     5     6    1
    24     6     8    1
    25     8     9   ar
    26     9    10   ar
    27    10    11   ar
    28    11    12    1
    29    11    13   ar
    30    13    14   ar
    31    14    15    1
    32     6     1    1
    33    14     8   ar
    34    33    28    1
    35    20    16   ar
    36     3     7    1
@<TRIPOS>MOLECULE
*****
 33 36 0 0 0
SMALL
GASTEIGER

@<TRIPOS>ATOM
      1 C         140.7034  140.6663  163.8863 C.2     1  UNL1        0.1397
      2 C         140.9591  139.3776  164.6100 C.2     1  UNL1        0.1355
      3 N         140.9864  139.3521  166.1095 N.pl3   1  UNL1       -0.1989
      4 C         140.7580  140.6153  166.8854 C.2     1  UNL1        0.3548
      5 N         140.5022  141.9040  166.1618 N.2     1  UNL1       -0.0571
      6 C         140.4749  141.9295  164.6622 C.3     1  UNL1        0.2692
      7 H         141.1543  138.5062  166.5844 H       1  UNL1        0.2983
      8 C         140.2191  143.2184  163.9386 C.ar    1  UNL1        0.0371
      9 C         141.3687  144.0963  163.5412 C.ar    1  UNL1        0.0030
     10 C         141.1129  145.3850  162.8176 C.ar    1  UNL1        0.0295
     11 C         139.7077  145.7960  162.4914 C.ar    1  UNL1        0.1406
     12 F         139.4519  147.0848  161.7678 F       1  UNL1       -0.2042
     13 C         138.5581  144.9181  162.8888 C.ar    1  UNL1        0.0362
     14 C         138.8139  143.6293  163.6124 C.ar    1  UNL1        0.0372
     15 BR        137.6644  142.7514  164.0098 Br      1  UNL1       -0.0491
     16 C         140.7853  140.5898  168.3849 C.ar    1  UNL1        0.2279
     17 N         139.8070  139.8791  169.2726 N.ar    1  UNL1       -0.2186
     18 C         140.2128  140.1205  170.6964 C.ar    1  UNL1        0.1194
     19 C         141.4419  140.9804  170.6886 C.ar    1  UNL1        0.0982
     20 N         141.7957  141.2704  169.2601 N.ar    1  UNL1       -0.3023
     21 C         142.9562  142.0960  168.7894 C.3     1  UNL1        0.1322
     22 C         140.6761  140.6919  162.3868 C.2     1  UNL1        0.3447
     23 O         141.8863  141.1397  161.6221 O.2     1  UNL1       -0.2450
     24 O         139.4385  140.2695  161.6519 O.3     1  UNL1       -0.4455
     25 C         137.8763  138.2024  161.8433 C.3     1  UNL1        0.0513
     26 C         138.3568  139.5211  162.3728 C.3     1  UNL1        0.2089
     27 C         141.1876  138.1143  163.8341 C.3     1  UNL1        0.1405
     28 N         142.1598  138.1011  162.6919 N.3     1  UNL1       -0.2617
     29 C         141.7124  137.6557  161.3312 C.3     1  UNL1        0.1050
     30 C         142.6847  137.6425  160.1890 C.3     1  UNL1        0.1595
     31 O         144.1043  138.0746  160.4075 O.3     1  UNL1       -0.3508
     32 C         144.5518  138.5200  161.7682 C.3     1  UNL1        0.1595
     33 C         143.5795  138.5332  162.9104 C.3     1  UNL1        0.1050
@<TRIPOS>BOND
     1    25    26    1
     2    26    24    1
     3    24    22    1
     4    22    23    2
     5    22     1    1
     6     1     2    2
     7     2    27    1
     8    27    28    1
     9    28    29    1
    10    29    30    1
    11    30    31    1
    12    31    32    1
    13    32    33    1
    14     2     3    1
    15     3     4    1
    16     4    16    1
    17    16    17   ar
    18    17    18   ar
    19    18    19   ar
    20    19    20   ar
    21    20    21    1
    22     4     5    2
    23     5     6    1
    24     6     8    1
    25     8     9   ar
    26     9    10   ar
    27    10    11   ar
    28    11    12    1
    29    11    13   ar
    30    13    14   ar
    31    14    15    1
    32     6     1    1
    33    14     8   ar
    34    33    28    1
    35    20    16   ar
    36     3     7    1
@<TRIPOS>MOLECULE
*****
 33 36 0 0 0
SMALL
GASTEIGER

@<TRIPOS>ATOM
      1 C         141.8665  140.7713  165.5309 C.2     1  UNL1        0.1397
      2 C         142.5635  141.2437  164.2896 C.2     1  UNL1        0.1355
      3 N         142.0053  142.3963  163.5086 N.pl3   1  UNL1       -0.1989
      4 C         140.7502  143.0765  163.9690 C.2     1  UNL1        0.3548
      5 N         140.0533  142.6041  165.2104 N.2     1  UNL1       -0.0571
      6 C         140.6114  141.4515  165.9913 C.3     1  UNL1        0.2692
      7 H         142.4628  142.7064  162.6938 H       1  UNL1        0.2983
      8 C         139.9144  140.9791  167.2328 C.ar    1  UNL1        0.0371
      9 C         140.1807  141.6543  168.5454 C.ar    1  UNL1        0.0030
     10 C         139.4837  141.1820  169.7868 C.ar    1  UNL1        0.0295
     11 C         138.5205  140.0343  169.7156 C.ar    1  UNL1        0.1406
     12 F         137.8235  139.5619  170.9570 F       1  UNL1       -0.2042
     13 C         138.2542  139.3590  168.4029 C.ar    1  UNL1        0.0362
     14 C         138.9512  139.8314  167.1615 C.ar    1  UNL1        0.0372
     15 BR        138.6850  139.1561  165.8488 Br      1  UNL1       -0.0491
     16 C         140.1921  144.2292  163.1880 C.ar    1  UNL1        0.2279
     17 N         140.9387  145.4672  162.7882 N.ar    1  UNL1       -0.2186
     18 C         139.9973  146.3493  162.0228 C.ar    1  UNL1        0.1194
     19 C         138.6690  145.6565  161.9496 C.ar    1  UNL1        0.0982
     20 N         138.7893  144.3461  162.6698 N.ar    1  UNL1       -0.3023
     21 C         137.6984  143.3310  162.8415 C.3     1  UNL1        0.1322
     22 C         142.4247  139.6186  166.3119 C.2     1  UNL1        0.3447
     23 O         142.3440  138.2275  165.7569 O.2     1  UNL1       -0.2450
     24 O         143.0635  139.8572  167.6479 O.3     1  UNL1       -0.4455
     25 C         142.8108  139.6515  170.2255 C.3     1  UNL1        0.0513
     26 C         142.5955  139.0922  168.8503 C.3     1  UNL1        0.2089
     27 C         143.8186  140.5635  163.8291 C.3     1  UNL1        0.1405
     28 N         143.8498  139.8656  162.5017 N.3     1  UNL1       -0.2617
     29 C         144.0188  140.6599  161.2406 C.3     1  UNL1        0.1050
     30 C         144.0499  139.9620  159.9131 C.3     1  UNL1        0.1595
     31 O         143.9122  138.4698  159.8469 O.3     1  UNL1       -0.3508
     32 C         143.7432  137.6755  161.1081 C.3     1  UNL1        0.1595
     33 C         143.7120  138.3734  162.4355 C.3     1  UNL1        0.1050
@<TRIPOS>BOND
     1    25    26    1
     2    26    24    1
     3    24    22    1
     4    22    23    2
     5    22     1    1
     6     1     2    2
     7     2    27    1
     8    27    28    1
     9    28    29    1
    10    29    30    1
    11    30    31    1
    12    31    32    1
    13    32    33    1
    14     2     3    1
    15     3     4    1
    16     4    16    1
    17    16    17   ar
    18    17    18   ar
    19    18    19   ar
    20    19    20   ar
    21    20    21    1
    22     4     5    2
    23     5     6    1
    24     6     8    1
    25     8     9   ar
    26     9    10   ar
    27    10    11   ar
    28    11    12    1
    29    11    13   ar
    30    13    14   ar
    31    14    15    1
    32     6     1    1
    33    14     8   ar
    34    33    28    1
    35    20    16   ar
    36     3     7    1
@<TRIPOS>MOLECULE
*****
 33 36 0 0 0
SMALL
GASTEIGER

@<TRIPOS>ATOM
      1 C         139.8691  141.2075  160.8784 C.2     1  UNL1        0.1397
      2 C         140.0389  140.4755  159.5802 C.2     1  UNL1        0.1355
      3 N         139.4069  141.0101  158.3294 N.pl3   1  UNL1       -0.1989
      4 C         138.6049  142.2768  158.3767 C.2     1  UNL1        0.3548
      5 N         138.4351  143.0089  159.6748 N.2     1  UNL1       -0.0571
      6 C         139.0672  142.4743  160.9256 C.3     1  UNL1        0.2692
      7 H         139.5183  140.5296  157.4774 H       1  UNL1        0.2983
      8 C         138.8974  143.2064  162.2238 C.ar    1  UNL1        0.0371
      9 C         137.7869  142.8281  163.1585 C.ar    1  UNL1        0.0030
     10 C         137.6170  143.5602  164.4566 C.ar    1  UNL1        0.0295
     11 C         138.5576  144.6707  164.8201 C.ar    1  UNL1        0.1406
     12 F         138.3877  145.4028  166.1182 F       1  UNL1       -0.2042
     13 C         139.6681  145.0491  163.8854 C.ar    1  UNL1        0.0362
     14 C         139.8380  144.3169  162.5872 C.ar    1  UNL1        0.0372
     15 BR        140.9485  144.6952  161.6525 Br      1  UNL1       -0.0491
     16 C         137.9729  142.8115  157.1258 C.ar    1  UNL1        0.2279
     17 N         136.7423  142.2714  156.4595 N.ar    1  UNL1       -0.2186
     18 C         136.4692  143.1062  155.2435 C.ar    1  UNL1        0.1194
     19 C         137.5311  144.1622  155.1583 C.ar    1  UNL1        0.0982
     20 N         138.4603  143.9801  156.3217 N.ar    1  UNL1       -0.3023
     21 C         139.6655  144.8193  156.6272 C.3     1  UNL1        0.1322
     22 C         140.5012  140.6729  162.1292 C.2     1  UNL1        0.3447
     23 O         139.8009  139.6161  162.9308 O.2     1  UNL1       -0.2450
     24 O         141.8337  141.1951  162.5785 O.3     1  UNL1       -0.4455
     25 C         141.2503  141.9324  165.0005 C.3     1  UNL1        0.0513
     26 C         142.1689  141.2369  164.0399 C.3     1  UNL1        0.2089
     27 C         140.8409  139.2086  159.5329 C.3     1  UNL1        0.1405
     28 N         141.9033  139.0321  158.4889 N.3     1  UNL1       -0.2617
     29 C         142.8474  140.1566  158.1819 C.3     1  UNL1        0.1050
     30 C         143.9098  139.9800  157.1378 C.3     1  UNL1        0.1595
     31 O         144.0281  138.6790  156.4007 O.3     1  UNL1       -0.3508
     32 C         143.0841  137.5545  156.7077 C.3     1  UNL1        0.1595
     33 C         142.0217  137.7310  157.7517 C.3     1  UNL1        0.1050
@<TRIPOS>BOND
     1    25    26    1
     2    26    24    1
     3    24    22    1
     4    22    23    2
     5    22     1    1
     6     1     2    2
     7     2    27    1
     8    27    28    1
     9    28    29    1
    10    29    30    1
    11    30    31    1
    12    31    32    1
    13    32    33    1
    14     2     3    1
    15     3     4    1
    16     4    16    1
    17    16    17   ar
    18    17    18   ar
    19    18    19   ar
    20    19    20   ar
    21    20    21    1
    22     4     5    2
    23     5     6    1
    24     6     8    1
    25     8     9   ar
    26     9    10   ar
    27    10    11   ar
    28    11    12    1
    29    11    13   ar
    30    13    14   ar
    31    14    15    1
    32     6     1    1
    33    14     8   ar
    34    33    28    1
    35    20    16   ar
    36     3     7    1
@<TRIPOS>MOLECULE
*****
 33 36 0 0 0
SMALL
GASTEIGER

@<TRIPOS>ATOM
      1 C         142.2646  140.3502  160.8720 C.2     1  UNL1        0.1397
      2 C         142.9598  140.8842  159.6549 C.2     1  UNL1        0.1355
      3 N         143.0417  140.0496  158.4112 N.pl3   1  UNL1       -0.1989
      4 C         142.4285  138.6810  158.3847 C.2     1  UNL1        0.3548
      5 N         141.7333  138.1470  159.6019 N.2     1  UNL1       -0.0571
      6 C         141.6514  138.9816  160.8455 C.3     1  UNL1        0.2692
      7 H         143.4980  140.4001  157.6123 H       1  UNL1        0.2983
      8 C         140.9562  138.4475  162.0628 C.ar    1  UNL1        0.0371
      9 C         141.7459  137.7577  163.1354 C.ar    1  UNL1        0.0030
     10 C         141.0507  137.2237  164.3525 C.ar    1  UNL1        0.0295
     11 C         139.5658  137.3794  164.4971 C.ar    1  UNL1        0.1406
     12 F         138.8707  136.8453  165.7143 F       1  UNL1       -0.2042
     13 C         138.7761  138.0692  163.4245 C.ar    1  UNL1        0.0362
     14 C         139.4713  138.6032  162.2073 C.ar    1  UNL1        0.0372
     15 BR        138.6816  139.2930  161.1346 Br      1  UNL1       -0.0491
     16 C         142.5104  137.8464  157.1411 C.ar    1  UNL1        0.2279
     17 N         143.7702  137.4061  156.4561 N.ar    1  UNL1       -0.2186
     18 C         143.3853  136.5931  155.2557 C.ar    1  UNL1        0.1194
     19 C         141.8877  136.5309  155.1988 C.ar    1  UNL1        0.0982
     20 N         141.3470  137.3055  156.3640 N.ar    1  UNL1       -0.3023
     21 C         139.8973  137.5042  156.6941 C.3     1  UNL1        0.1322
     22 C         142.1827  141.1849  162.1157 C.2     1  UNL1        0.3447
     23 O         140.9060  141.8923  162.4614 O.2     1  UNL1       -0.2450
     24 O         143.3774  141.3121  163.0136 O.3     1  UNL1       -0.4455
     25 C         144.8982  139.5523  164.1715 C.3     1  UNL1        0.0513
     26 C         144.4824  140.3004  162.9395 C.3     1  UNL1        0.2089
     27 C         143.5730  142.2530  159.6813 C.3     1  UNL1        0.1405
     28 N         142.8019  143.4304  159.1629 N.3     1  UNL1       -0.2617
     29 C         141.8896  144.1916  160.0785 C.3     1  UNL1        0.1050
     30 C         141.1185  145.3691  159.5600 C.3     1  UNL1        0.1595
     31 O         141.2597  145.7855  158.1259 O.3     1  UNL1       -0.3508
     32 C         142.1719  145.0244  157.2103 C.3     1  UNL1        0.1595
     33 C         142.9431  143.8469  157.7287 C.3     1  UNL1        0.1050
@<TRIPOS>BOND
     1    25    26    1
     2    26    24    1
     3    24    22    1
     4    22    23    2
     5    22     1    1
     6     1     2    2
     7     2    27    1
     8    27    28    1
     9    28    29    1
    10    29    30    1
    11    30    31    1
    12    31    32    1
    13    32    33    1
    14     2     3    1
    15     3     4    1
    16     4    16    1
    17    16    17   ar
    18    17    18   ar
    19    18    19   ar
    20    19    20   ar
    21    20    21    1
    22     4     5    2
    23     5     6    1
    24     6     8    1
    25     8     9   ar
    26     9    10   ar
    27    10    11   ar
    28    11    12    1
    29    11    13   ar
    30    13    14   ar
    31    14    15    1
    32     6     1    1
    33    14     8   ar
    34    33    28    1
    35    20    16   ar
    36     3     7    1
@<TRIPOS>MOLECULE
*****
 33 36 0 0 0
SMALL
GASTEIGER

@<TRIPOS>ATOM
      1 C         140.5358  141.1364  161.1219 C.2     1  UNL1        0.1397
      2 C         140.7775  140.2987  159.9014 C.2     1  UNL1        0.1355
      3 N         139.8654  140.4187  158.7166 N.pl3   1  UNL1       -0.1989
      4 C         138.7115  141.3764  158.7524 C.2     1  UNL1        0.3548
      5 N         138.4697  142.2141  159.9729 N.2     1  UNL1       -0.0571
      6 C         139.3819  142.0941  161.1577 C.3     1  UNL1        0.2692
      7 H         140.0241  139.8689  157.9155 H       1  UNL1        0.2983
      8 C         139.1400  142.9318  162.3783 C.ar    1  UNL1        0.0371
      9 C         139.8535  144.2410  162.5428 C.ar    1  UNL1        0.0030
     10 C         139.6117  145.0788  163.7633 C.ar    1  UNL1        0.0295
     11 C         138.6564  144.6073  164.8194 C.ar    1  UNL1        0.1406
     12 F         138.4146  145.4451  166.0399 F       1  UNL1       -0.2042
     13 C         137.9430  143.2982  164.6549 C.ar    1  UNL1        0.0362
     14 C         138.1848  142.4604  163.4343 C.ar    1  UNL1        0.0372
     15 BR        137.4714  141.1512  163.2698 Br      1  UNL1       -0.0491
     16 C         137.7994  141.4964  157.5676 C.ar    1  UNL1        0.2279
     17 N         136.6753  140.5651  157.2224 N.ar    1  UNL1       -0.2186
     18 C         136.0324  141.0619  155.9615 C.ar    1  UNL1        0.1194
     19 C         136.7592  142.3002  155.5274 C.ar    1  UNL1        0.0982
     20 N         137.8512  142.5687  156.5200 N.ar    1  UNL1       -0.3023
     21 C         138.8243  143.7093  156.4732 C.3     1  UNL1        0.1322
     22 C         141.4479  141.0164  162.3066 C.2     1  UNL1        0.3447
     23 O         142.7451  141.7690  162.3337 O.2     1  UNL1       -0.2450
     24 O         141.0628  140.1439  163.4643 O.3     1  UNL1       -0.4455
     25 C         141.2884  137.5627  163.6564 C.3     1  UNL1        0.0513
     26 C         140.5136  138.7699  163.2178 C.3     1  UNL1        0.2089
     27 C         141.9315  139.3410  159.8655 C.3     1  UNL1        0.1405
     28 N         142.6216  139.0464  158.5667 N.3     1  UNL1       -0.2617
     29 C         142.4875  137.6919  157.9365 C.3     1  UNL1        0.1050
     30 C         143.1777  137.3974  156.6376 C.3     1  UNL1        0.1595
     31 O         144.0019  138.4574  155.9691 O.3     1  UNL1       -0.3508
     32 C         144.1361  139.8119  156.5993 C.3     1  UNL1        0.1595
     33 C         143.4459  140.1065  157.8981 C.3     1  UNL1        0.1050
@<TRIPOS>BOND
     1    25    26    1
     2    26    24    1
     3    24    22    1
     4    22    23    2
     5    22     1    1
     6     1     2    2
     7     2    27    1
     8    27    28    1
     9    28    29    1
    10    29    30    1
    11    30    31    1
    12    31    32    1
    13    32    33    1
    14     2     3    1
    15     3     4    1
    16     4    16    1
    17    16    17   ar
    18    17    18   ar
    19    18    19   ar
    20    19    20   ar
    21    20    21    1
    22     4     5    2
    23     5     6    1
    24     6     8    1
    25     8     9   ar
    26     9    10   ar
    27    10    11   ar
    28    11    12    1
    29    11    13   ar
    30    13    14   ar
    31    14    15    1
    32     6     1    1
    33    14     8   ar
    34    33    28    1
    35    20    16   ar
    36     3     7    1
