@<TRIPOS>MOLECULE
*****
 41 47 0 0 0
SMALL
GASTEIGER

@<TRIPOS>ATOM
      1 C         143.4128  139.3444  165.3021 C.2     1  UNL1        0.2508
      2 O         142.7457  138.0056  165.4150 O.2     1  UNL1       -0.2727
      3 N         142.8862  140.5128  166.0816 N.am    1  UNL1       -0.2754
      4 C         141.6925  140.3423  166.9739 C.3     1  UNL1        0.0756
      5 C         141.8264  140.5497  168.4535 C.3     1  UNL1        0.0182
      6 C         140.4989  140.1719  167.8662 C.3     1  UNL1        0.0016
      7 C         139.3053  140.0014  168.7585 C.3     1  UNL1        0.0001
      8 C         139.4392  140.2088  170.2381 C.3     1  UNL1        0.0000
      9 C         140.7667  140.5867  170.8253 C.3     1  UNL1        0.0001
     10 C         141.9603  140.7571  169.9330 C.3     1  UNL1        0.0016
     11 C         141.2087  140.3024  167.5799 C.3     1  UNL1        0.0016
     12 C         140.3650  139.9645  166.3867 C.3     1  UNL1        0.0182
     13 C         139.1714  139.7940  167.2790 C.3     1  UNL1        0.0016
     14 C         144.6064  139.5148  164.4099 C.3     1  UNL1        0.2138
     15 C         143.8125  141.9515  161.4947 C.ar    1  UNL1        0.1233
     16 C         143.3889  140.8941  162.4708 C.ar    1  UNL1        0.1181
     17 N         144.5798  140.5319  163.3077 N.ar    1  UNL1       -0.2208
     18 N         145.7395  141.3654  162.8489 N.ar    1  UNL1       -0.0633
     19 N         145.2653  142.2427  161.7284 N.ar    1  UNL1       -0.1287
     20 C         140.6010  143.4558  159.7133 C.ar    1  UNL1        0.1547
     21 C         141.4765  142.8042  160.7423 C.ar    1  UNL1        0.0400
     22 C         142.9370  142.6031  160.4657 C.ar    1  UNL1        0.0241
     23 C         143.5221  143.0537  159.1601 C.ar    1  UNL1        0.0033
     24 C         142.6466  143.7053  158.1311 C.ar    1  UNL1        0.0207
     25 C         141.1862  143.9064  158.4076 C.ar    1  UNL1        0.0994
     26 N         140.3107  144.5581  157.3785 N.ar    1  UNL1       -0.2839
     27 C         139.2979  143.8650  156.5161 C.ar    1  UNL1        0.1826
     28 N         138.6557  144.8958  155.6358 N.ar    1  UNL1       -0.2280
     29 C         139.2717  146.2260  155.9542 C.ar    1  UNL1        0.0786
     30 C         138.9254  147.5350  155.3087 C.3     1  UNL1        0.0538
     31 C         140.2945  146.0172  157.0312 C.ar    1  UNL1        0.0963
     32 C         138.3521  142.5810  160.6759 C.3     1  UNL1        0.2525
     33 O         139.1406  143.6569  159.9898 O.3     1  UNL1       -0.4700
     34 C         143.5532  141.8515  165.9689 C.3     1  UNL1        0.1201
     35 C         142.9115  142.9439  165.1657 C.ar    1  UNL1       -0.0022
     36 C         141.4229  142.9646  164.9824 C.ar    1  UNL1       -0.0003
     37 C         140.7813  144.0570  164.1793 C.ar    1  UNL1        0.0294
     38 C         141.6282  145.1287  163.5596 C.ar    1  UNL1        0.1401
     39 F         140.9865  146.2211  162.7564 F       1  UNL1       -0.2042
     40 C         143.1168  145.1080  163.7429 C.ar    1  UNL1        0.0294
     41 C         143.7584  144.0157  164.5460 C.ar    1  UNL1       -0.0003
@<TRIPOS>BOND
     1    32    33    1
     2    33    20    1
     3    20    21   ar
     4    21    22   ar
     5    22    15    1
     6    15    16   ar
     7    16    17   ar
     8    17    14    1
     9    14     1    1
    10     1     2    2
    11     1     3   am
    12     3    34    1
    13    34    35    1
    14    35    36   ar
    15    36    37   ar
    16    37    38   ar
    17    38    39    1
    18    38    40   ar
    19    40    41   ar
    20     3     4    1
    21     4     5    1
    22     5     6    1
    23     6     7    1
    24     7     8    1
    25     8     9    1
    26     9    10    1
    27     9    11    1
    28    11    12    1
    29    12    13    1
    30    17    18   ar
    31    18    19   ar
    32    22    23   ar
    33    23    24   ar
    34    24    25   ar
    35    25    26    1
    36    26    27   ar
    37    27    28   ar
    38    28    29   ar
    39    29    30    1
    40    29    31   ar
    41    25    20   ar
    42    31    26   ar
    43    19    15   ar
    44    41    35   ar
    45    12     4    1
    46    10     5    1
    47    13     7    1
@<TRIPOS>MOLECULE
*****
 41 47 0 0 0
SMALL
GASTEIGER

@<TRIPOS>ATOM
      1 C         138.5158  140.8769  164.9509 C.2     1  UNL1        0.2508
      2 O         138.3533  139.3946  165.1139 O.2     1  UNL1       -0.2727
      3 N         139.5001  141.6216  165.8032 N.am    1  UNL1       -0.2754
      4 C         140.3219  140.8841  166.8185 C.3     1  UNL1        0.0756
      5 C         139.8915  140.8569  168.2552 C.3     1  UNL1        0.0182
      6 C         141.1436  140.1466  167.8338 C.3     1  UNL1        0.0016
      7 C         141.9653  139.4091  168.8491 C.3     1  UNL1        0.0001
      8 C         141.5350  139.3820  170.2858 C.3     1  UNL1        0.0000
      9 C         140.2829  140.0923  170.7072 C.3     1  UNL1        0.0001
     10 C         139.4612  140.8298  169.6919 C.3     1  UNL1        0.0016
     11 C         140.6026  140.5682  167.4699 C.3     1  UNL1        0.0016
     12 C         141.5740  140.1737  166.3971 C.3     1  UNL1        0.0182
     13 C         142.3957  139.4363  167.4124 C.3     1  UNL1        0.0016
     14 C         137.6940  141.6143  163.9356 C.3     1  UNL1        0.2138
     15 C         139.8257  142.2006  160.7454 C.ar    1  UNL1        0.1233
     16 C         139.5931  141.5116  162.0574 C.ar    1  UNL1        0.1181
     17 N         138.3091  142.0315  162.6327 N.ar    1  UNL1       -0.2208
     18 N         137.7481  143.0417  161.6763 N.ar    1  UNL1       -0.0633
     19 N         138.6855  143.1463  160.5099 N.ar    1  UNL1       -0.1287
     20 C         143.1485  140.6724  159.2047 C.ar    1  UNL1        0.1547
     21 C         141.9807  140.8908  160.1204 C.ar    1  UNL1        0.0400
     22 C         140.9936  141.9822  159.8298 C.ar    1  UNL1        0.0241
     23 C         141.1743  142.8553  158.6235 C.ar    1  UNL1        0.0033
     24 C         142.3422  142.6369  157.7078 C.ar    1  UNL1        0.0207
     25 C         143.3292  141.5455  157.9984 C.ar    1  UNL1        0.0994
     26 N         144.4971  141.3272  157.0827 N.ar    1  UNL1       -0.2839
     27 C         144.6079  140.2603  156.0342 C.ar    1  UNL1        0.1826
     28 N         145.9385  140.4112  155.3583 N.ar    1  UNL1       -0.2280
     29 C         146.6500  141.5714  155.9891 C.ar    1  UNL1        0.0786
     30 C         148.0129  142.0766  155.6190 C.3     1  UNL1        0.0538
     31 C         145.7591  142.1374  157.0548 C.ar    1  UNL1        0.0963
     32 C         143.8841  138.6227  160.6215 C.3     1  UNL1        0.2525
     33 O         144.1356  139.5811  159.4953 O.3     1  UNL1       -0.4700
     34 C         139.6626  143.1038  165.6403 C.3     1  UNL1        0.1201
     35 C         140.8448  143.6515  164.8970 C.ar    1  UNL1       -0.0022
     36 C         140.6432  144.6646  163.8093 C.ar    1  UNL1       -0.0003
     37 C         141.8254  145.2122  163.0660 C.ar    1  UNL1        0.0294
     38 C         143.2091  144.7468  163.4104 C.ar    1  UNL1        0.1401
     39 F         144.3913  145.2945  162.6671 F       1  UNL1       -0.2042
     40 C         143.4107  143.7338  164.4981 C.ar    1  UNL1        0.0294
     41 C         142.2286  143.1861  165.2414 C.ar    1  UNL1       -0.0003
@<TRIPOS>BOND
     1    32    33    1
     2    33    20    1
     3    20    21   ar
     4    21    22   ar
     5    22    15    1
     6    15    16   ar
     7    16    17   ar
     8    17    14    1
     9    14     1    1
    10     1     2    2
    11     1     3   am
    12     3    34    1
    13    34    35    1
    14    35    36   ar
    15    36    37   ar
    16    37    38   ar
    17    38    39    1
    18    38    40   ar
    19    40    41   ar
    20     3     4    1
    21     4     5    1
    22     5     6    1
    23     6     7    1
    24     7     8    1
    25     8     9    1
    26     9    10    1
    27     9    11    1
    28    11    12    1
    29    12    13    1
    30    17    18   ar
    31    18    19   ar
    32    22    23   ar
    33    23    24   ar
    34    24    25   ar
    35    25    26    1
    36    26    27   ar
    37    27    28   ar
    38    28    29   ar
    39    29    30    1
    40    29    31   ar
    41    25    20   ar
    42    31    26   ar
    43    19    15   ar
    44    41    35   ar
    45    12     4    1
    46    10     5    1
    47    13     7    1
@<TRIPOS>MOLECULE
*****
 41 47 0 0 0
SMALL
GASTEIGER

@<TRIPOS>ATOM
      1 C         144.3696  142.6349  164.8385 C.2     1  UNL1        0.2508
      2 O         144.2525  144.0930  165.1708 O.2     1  UNL1       -0.2727
      3 N         143.5397  141.6281  165.5786 N.am    1  UNL1       -0.2754
      4 C         142.5928  142.0794  166.6508 C.3     1  UNL1        0.0756
      5 C         143.0608  142.1761  168.0726 C.3     1  UNL1        0.0182
      6 C         141.6459  142.5306  167.7231 C.3     1  UNL1        0.0016
      7 C         140.6990  142.9819  168.7953 C.3     1  UNL1        0.0001
      8 C         141.1671  143.0786  170.2171 C.3     1  UNL1        0.0000
      9 C         142.5820  142.7241  170.5667 C.3     1  UNL1        0.0001
     10 C         143.5289  142.2728  169.4945 C.3     1  UNL1        0.0016
     11 C         142.2650  142.2851  167.3239 C.3     1  UNL1        0.0016
     12 C         141.1778  142.4339  166.3012 C.3     1  UNL1        0.0182
     13 C         140.2310  142.8852  167.3735 C.3     1  UNL1        0.0016
     14 C         145.3165  142.1837  163.7663 C.3     1  UNL1        0.2138
     15 C         144.0148  140.8426  160.3645 C.ar    1  UNL1        0.1233
     16 C         144.4771  140.6131  161.7729 C.ar    1  UNL1        0.1181
     17 N         144.8138  141.9459  162.3732 N.ar    1  UNL1       -0.2208
     18 N         144.5596  142.9990  161.3358 N.ar    1  UNL1       -0.0633
     19 N         144.0658  142.3172  160.0944 N.ar    1  UNL1       -0.1287
     20 C         143.2719  138.9576  156.9520 C.ar    1  UNL1        0.1547
     21 C         143.7086  140.0168  157.9202 C.ar    1  UNL1        0.0400
     22 C         143.5781  139.7835  159.3962 C.ar    1  UNL1        0.0241
     23 C         143.0109  138.4910  159.9040 C.ar    1  UNL1        0.0033
     24 C         142.5743  137.4319  158.9358 C.ar    1  UNL1        0.0207
     25 C         142.7048  137.6652  157.4599 C.ar    1  UNL1        0.0994
     26 N         142.2681  136.6059  156.4916 N.ar    1  UNL1       -0.2839
     27 C         141.0331  136.6439  155.6412 C.ar    1  UNL1        0.1826
     28 N         140.9915  135.3842  154.8278 N.ar    1  UNL1       -0.2280
     29 C         142.2008  134.5677  155.1757 C.ar    1  UNL1        0.0786
     30 C         142.5583  133.2309  154.5968 C.3     1  UNL1        0.0538
     31 C         142.9897  135.3228  156.2039 C.ar    1  UNL1        0.0963
     32 C         144.6859  138.8582  154.7748 C.3     1  UNL1        0.2525
     33 O         143.4024  139.1909  155.4761 O.3     1  UNL1       -0.4700
     34 C         143.6568  140.1701  165.2464 C.3     1  UNL1        0.1201
     35 C         142.4788  139.4325  164.6819 C.ar    1  UNL1       -0.0022
     36 C         142.1812  138.0344  165.1366 C.ar    1  UNL1       -0.0003
     37 C         141.0033  137.2969  164.5722 C.ar    1  UNL1        0.0294
     38 C         140.1230  137.9575  163.5531 C.ar    1  UNL1        0.1401
     39 F         138.9451  137.2200  162.9886 F       1  UNL1       -0.2042
     40 C         140.4206  139.3556  163.0983 C.ar    1  UNL1        0.0294
     41 C         141.5985  140.0931  163.6628 C.ar    1  UNL1       -0.0003
@<TRIPOS>BOND
     1    32    33    1
     2    33    20    1
     3    20    21   ar
     4    21    22   ar
     5    22    15    1
     6    15    16   ar
     7    16    17   ar
     8    17    14    1
     9    14     1    1
    10     1     2    2
    11     1     3   am
    12     3    34    1
    13    34    35    1
    14    35    36   ar
    15    36    37   ar
    16    37    38   ar
    17    38    39    1
    18    38    40   ar
    19    40    41   ar
    20     3     4    1
    21     4     5    1
    22     5     6    1
    23     6     7    1
    24     7     8    1
    25     8     9    1
    26     9    10    1
    27     9    11    1
    28    11    12    1
    29    12    13    1
    30    17    18   ar
    31    18    19   ar
    32    22    23   ar
    33    23    24   ar
    34    24    25   ar
    35    25    26    1
    36    26    27   ar
    37    27    28   ar
    38    28    29   ar
    39    29    30    1
    40    29    31   ar
    41    25    20   ar
    42    31    26   ar
    43    19    15   ar
    44    41    35   ar
    45    12     4    1
    46    10     5    1
    47    13     7    1
@<TRIPOS>MOLECULE
*****
 41 47 0 0 0
SMALL
GASTEIGER

@<TRIPOS>ATOM
      1 C         139.2242  142.2170  165.2661 C.2     1  UNL1        0.2508
      2 O         140.0964  143.2423  165.9281 O.2     1  UNL1       -0.2727
      3 N         139.2997  140.7807  165.6919 N.am    1  UNL1       -0.2754
      4 C         140.2474  140.3697  166.7796 C.3     1  UNL1        0.0756
      5 C         139.8003  140.3906  168.2113 C.3     1  UNL1        0.0182
      6 C         141.1950  139.9587  167.8673 C.3     1  UNL1        0.0016
      7 C         142.1425  139.5478  168.9550 C.3     1  UNL1        0.0001
      8 C         141.6955  139.5687  170.3867 C.3     1  UNL1        0.0000
      9 C         140.3008  140.0005  170.7307 C.3     1  UNL1        0.0001
     10 C         139.3532  140.4115  169.6430 C.3     1  UNL1        0.0016
     11 C         140.5787  140.1993  167.4608 C.3     1  UNL1        0.0016
     12 C         141.6420  139.9379  166.4357 C.3     1  UNL1        0.0182
     13 C         142.5896  139.5269  167.5234 C.3     1  UNL1        0.0016
     14 C         138.2766  142.6280  164.1784 C.3     1  UNL1        0.2138
     15 C         140.1810  142.7453  160.7983 C.ar    1  UNL1        0.1233
     16 C         140.0895  142.3303  162.2369 C.ar    1  UNL1        0.1181
     17 N         138.7799  142.8215  162.7787 N.ar    1  UNL1       -0.2208
     18 N         138.0620  143.5402  161.6750 N.ar    1  UNL1       -0.0633
     19 N         138.9279  143.4931  160.4511 N.ar    1  UNL1       -0.1287
     20 C         143.1355  140.8358  158.9612 C.ar    1  UNL1        0.1547
     21 C         141.9917  141.1188  159.8895 C.ar    1  UNL1        0.0400
     22 C         141.3248  142.4623  159.8701 C.ar    1  UNL1        0.0241
     23 C         141.8016  143.5227  158.9224 C.ar    1  UNL1        0.0033
     24 C         142.9454  143.2396  157.9941 C.ar    1  UNL1        0.0207
     25 C         143.6122  141.8963  158.0135 C.ar    1  UNL1        0.0994
     26 N         144.7561  141.6132  157.0852 N.ar    1  UNL1       -0.2839
     27 C         144.7549  140.6189  155.9623 C.ar    1  UNL1        0.1826
     28 N         146.0999  140.6660  155.2999 N.ar    1  UNL1       -0.2280
     29 C         146.9324  141.6897  156.0136 C.ar    1  UNL1        0.0786
     30 C         148.3470  142.0623  155.6820 C.3     1  UNL1        0.0538
     31 C         146.1018  142.2750  157.1169 C.ar    1  UNL1        0.0963
     32 C         143.3751  138.4573  159.9787 C.3     1  UNL1        0.2525
     33 O         143.8024  139.4924  158.9806 O.3     1  UNL1       -0.4700
     34 C         138.4276  139.7554  165.0300 C.3     1  UNL1        0.1201
     35 C         138.7563  139.2699  163.6493 C.ar    1  UNL1       -0.0022
     36 C         140.0525  138.5600  163.3927 C.ar    1  UNL1       -0.0003
     37 C         140.3811  138.0745  162.0121 C.ar    1  UNL1        0.0294
     38 C         139.4136  138.2988  160.8880 C.ar    1  UNL1        0.1401
     39 F         139.7423  137.8133  159.5073 F       1  UNL1       -0.2042
     40 C         138.1174  139.0087  161.1446 C.ar    1  UNL1        0.0294
     41 C         137.7887  139.4942  162.5253 C.ar    1  UNL1       -0.0003
@<TRIPOS>BOND
     1    32    33    1
     2    33    20    1
     3    20    21   ar
     4    21    22   ar
     5    22    15    1
     6    15    16   ar
     7    16    17   ar
     8    17    14    1
     9    14     1    1
    10     1     2    2
    11     1     3   am
    12     3    34    1
    13    34    35    1
    14    35    36   ar
    15    36    37   ar
    16    37    38   ar
    17    38    39    1
    18    38    40   ar
    19    40    41   ar
    20     3     4    1
    21     4     5    1
    22     5     6    1
    23     6     7    1
    24     7     8    1
    25     8     9    1
    26     9    10    1
    27     9    11    1
    28    11    12    1
    29    12    13    1
    30    17    18   ar
    31    18    19   ar
    32    22    23   ar
    33    23    24   ar
    34    24    25   ar
    35    25    26    1
    36    26    27   ar
    37    27    28   ar
    38    28    29   ar
    39    29    30    1
    40    29    31   ar
    41    25    20   ar
    42    31    26   ar
    43    19    15   ar
    44    41    35   ar
    45    12     4    1
    46    10     5    1
    47    13     7    1
@<TRIPOS>MOLECULE
*****
 41 47 0 0 0
SMALL
GASTEIGER

@<TRIPOS>ATOM
      1 C         139.5619  139.4575  165.6036 C.2     1  UNL1        0.2508
      2 O         138.6092  139.1631  166.7243 O.2     1  UNL1       -0.2727
      3 N         140.9035  140.0601  165.8985 N.am    1  UNL1       -0.2754
      4 C         141.2924  140.3684  167.3140 C.3     1  UNL1        0.0756
      5 C         140.8989  141.6773  167.9319 C.3     1  UNL1        0.0182
      6 C         141.6813  140.6766  168.7295 C.3     1  UNL1        0.0016
      7 C         142.0703  140.9849  170.1450 C.3     1  UNL1        0.0001
      8 C         141.6767  142.2939  170.7629 C.3     1  UNL1        0.0000
      9 C         140.8942  143.2946  169.9652 C.3     1  UNL1        0.0001
     10 C         140.5053  142.9863  168.5497 C.3     1  UNL1        0.0016
     11 C         141.3959  140.7011  168.0078 C.3     1  UNL1        0.0016
     12 C         142.0749  139.3677  168.1117 C.3     1  UNL1        0.0182
     13 C         142.4638  139.6759  169.5272 C.3     1  UNL1        0.0016
     14 C         139.1729  139.1492  164.1881 C.3     1  UNL1        0.2138
     15 C         138.6531  141.8805  161.4797 C.ar    1  UNL1        0.1233
     16 C         139.4754  140.7898  162.0996 C.ar    1  UNL1        0.1181
     17 N         138.7191  140.2518  163.2779 N.ar    1  UNL1       -0.2208
     18 N         137.4294  141.0100  163.3863 N.ar    1  UNL1       -0.0633
     19 N         137.3885  142.0165  162.2749 N.ar    1  UNL1       -0.1287
     20 C         138.8615  143.1410  157.7223 C.ar    1  UNL1        0.1547
     21 C         138.4853  142.3290  158.9261 C.ar    1  UNL1        0.0400
     22 C         139.0293  142.6925  160.2759 C.ar    1  UNL1        0.0241
     23 C         139.9496  143.8680  160.4219 C.ar    1  UNL1        0.0033
     24 C         140.3258  144.6800  159.2181 C.ar    1  UNL1        0.0207
     25 C         139.7818  144.3165  157.8684 C.ar    1  UNL1        0.0994
     26 N         140.1580  145.1286  156.6646 N.ar    1  UNL1       -0.2839
     27 C         141.1677  144.7461  155.6235 C.ar    1  UNL1        0.1826
     28 N         141.2243  145.8468  154.6061 N.ar    1  UNL1       -0.2280
     29 C         140.2495  146.9097  155.0184 C.ar    1  UNL1        0.0786
     30 C         139.9809  148.1914  154.2869 C.3     1  UNL1        0.0538
     31 C         139.5905  146.4658  156.2906 C.ar    1  UNL1        0.0963
     32 C         137.1400  143.5201  155.8138 C.3     1  UNL1        0.2525
     33 O         138.3174  142.7776  156.3726 O.3     1  UNL1       -0.4700
     34 C         141.8561  140.3545  164.7779 C.3     1  UNL1        0.1201
     35 C         142.4373  141.7293  164.6292 C.ar    1  UNL1       -0.0022
     36 C         143.8464  141.9993  165.0669 C.ar    1  UNL1       -0.0003
     37 C         144.4275  143.3741  164.9183 C.ar    1  UNL1        0.0294
     38 C         143.5997  144.4789  164.3318 C.ar    1  UNL1        0.1401
     39 F         144.1809  145.8538  164.1832 F       1  UNL1       -0.2042
     40 C         142.1906  144.2090  163.8941 C.ar    1  UNL1        0.0294
     41 C         141.6094  142.8342  164.0428 C.ar    1  UNL1       -0.0003
@<TRIPOS>BOND
     1    32    33    1
     2    33    20    1
     3    20    21   ar
     4    21    22   ar
     5    22    15    1
     6    15    16   ar
     7    16    17   ar
     8    17    14    1
     9    14     1    1
    10     1     2    2
    11     1     3   am
    12     3    34    1
    13    34    35    1
    14    35    36   ar
    15    36    37   ar
    16    37    38   ar
    17    38    39    1
    18    38    40   ar
    19    40    41   ar
    20     3     4    1
    21     4     5    1
    22     5     6    1
    23     6     7    1
    24     7     8    1
    25     8     9    1
    26     9    10    1
    27     9    11    1
    28    11    12    1
    29    12    13    1
    30    17    18   ar
    31    18    19   ar
    32    22    23   ar
    33    23    24   ar
    34    24    25   ar
    35    25    26    1
    36    26    27   ar
    37    27    28   ar
    38    28    29   ar
    39    29    30    1
    40    29    31   ar
    41    25    20   ar
    42    31    26   ar
    43    19    15   ar
    44    41    35   ar
    45    12     4    1
    46    10     5    1
    47    13     7    1
@<TRIPOS>MOLECULE
*****
 41 47 0 0 0
SMALL
GASTEIGER

@<TRIPOS>ATOM
      1 C         138.7244  143.4586  164.2308 C.2     1  UNL1        0.2508
      2 O         137.4749  142.7117  164.5929 O.2     1  UNL1       -0.2727
      3 N         139.9812  143.2455  165.0214 N.am    1  UNL1       -0.2754
      4 C         139.9885  142.2856  166.1741 C.3     1  UNL1        0.0756
      5 C         140.2223  142.7889  167.5676 C.3     1  UNL1        0.0182
      6 C         139.9958  141.3259  167.3267 C.3     1  UNL1        0.0016
      7 C         140.0032  140.3661  168.4794 C.3     1  UNL1        0.0001
      8 C         140.2370  140.8693  169.8730 C.3     1  UNL1        0.0000
      9 C         140.4635  142.3324  170.1139 C.3     1  UNL1        0.0001
     10 C         140.4561  143.2922  168.9612 C.3     1  UNL1        0.0016
     11 C         140.0278  141.9579  166.8768 C.3     1  UNL1        0.0016
     12 C         139.7620  140.8226  165.9332 C.3     1  UNL1        0.0182
     13 C         139.7693  139.8628  167.0858 C.3     1  UNL1        0.0016
     14 C         138.7170  144.4184  163.0781 C.3     1  UNL1        0.2138
     15 C         140.4643  142.7522  160.0390 C.ar    1  UNL1        0.1233
     16 C         139.9110  142.6840  161.4316 C.ar    1  UNL1        0.1181
     17 N         139.3650  144.0368  161.7803 N.ar    1  UNL1       -0.2208
     18 N         139.5808  144.9412  160.6031 N.ar    1  UNL1       -0.0633
     19 N         140.2602  144.1472  159.5270 N.ar    1  UNL1       -0.1287
     20 C         142.9272  139.7746  159.1342 C.ar    1  UNL1        0.1547
     21 C         142.2830  140.9033  159.8833 C.ar    1  UNL1        0.0400
     22 C         141.1085  141.6235  159.2900 C.ar    1  UNL1        0.0241
     23 C         140.5782  141.2149  157.9477 C.ar    1  UNL1        0.0033
     24 C         141.2224  140.0862  157.1986 C.ar    1  UNL1        0.0207
     25 C         142.3968  139.3661  157.7919 C.ar    1  UNL1        0.0994
     26 N         143.0410  138.2374  157.0428 N.ar    1  UNL1       -0.2839
     27 C         144.0912  138.3703  155.9802 C.ar    1  UNL1        0.1826
     28 N         144.4473  136.9927  155.5055 N.ar    1  UNL1       -0.2280
     29 C         143.6171  136.0083  156.2748 C.ar    1  UNL1        0.0786
     30 C         143.6503  134.5166  156.1210 C.3     1  UNL1        0.0538
     31 C         142.7480  136.7776  157.2249 C.ar    1  UNL1        0.0963
     32 C         143.9825  138.4092  161.0763 C.3     1  UNL1        0.2525
     33 O         144.1016  139.0546  159.7275 O.3     1  UNL1       -0.4700
     34 C         141.2306  143.9923  164.6593 C.3     1  UNL1        0.1201
     35 C         142.5162  143.2475  164.4521 C.ar    1  UNL1       -0.0022
     36 C         143.8153  143.8586  164.8863 C.ar    1  UNL1       -0.0003
     37 C         145.1008  143.1139  164.6791 C.ar    1  UNL1        0.0294
     38 C         145.0870  141.7580  164.0377 C.ar    1  UNL1        0.1401
     39 F         146.3725  141.0132  163.8306 F       1  UNL1       -0.2042
     40 C         143.7878  141.1469  163.6035 C.ar    1  UNL1        0.0294
     41 C         142.5024  141.8917  163.8107 C.ar    1  UNL1       -0.0003
@<TRIPOS>BOND
     1    32    33    1
     2    33    20    1
     3    20    21   ar
     4    21    22   ar
     5    22    15    1
     6    15    16   ar
     7    16    17   ar
     8    17    14    1
     9    14     1    1
    10     1     2    2
    11     1     3   am
    12     3    34    1
    13    34    35    1
    14    35    36   ar
    15    36    37   ar
    16    37    38   ar
    17    38    39    1
    18    38    40   ar
    19    40    41   ar
    20     3     4    1
    21     4     5    1
    22     5     6    1
    23     6     7    1
    24     7     8    1
    25     8     9    1
    26     9    10    1
    27     9    11    1
    28    11    12    1
    29    12    13    1
    30    17    18   ar
    31    18    19   ar
    32    22    23   ar
    33    23    24   ar
    34    24    25   ar
    35    25    26    1
    36    26    27   ar
    37    27    28   ar
    38    28    29   ar
    39    29    30    1
    40    29    31   ar
    41    25    20   ar
    42    31    26   ar
    43    19    15   ar
    44    41    35   ar
    45    12     4    1
    46    10     5    1
    47    13     7    1
@<TRIPOS>MOLECULE
*****
 41 47 0 0 0
SMALL
GASTEIGER

@<TRIPOS>ATOM
      1 C         143.4589  139.5191  165.0810 C.2     1  UNL1        0.2508
      2 O         142.8858  138.1329  165.0956 O.2     1  UNL1       -0.2727
      3 N         142.8257  140.6011  165.9047 N.am    1  UNL1       -0.2754
      4 C         141.6194  140.2969  166.7428 C.3     1  UNL1        0.0756
      5 C         140.3754  139.7595  166.0996 C.3     1  UNL1        0.0182
      6 C         140.4131  139.9927  167.5809 C.3     1  UNL1        0.0016
      7 C         139.2069  139.6885  168.4189 C.3     1  UNL1        0.0001
      8 C         137.9629  139.1511  167.7757 C.3     1  UNL1        0.0000
      9 C         137.9252  138.9178  166.2945 C.3     1  UNL1        0.0001
     10 C         139.1314  139.2220  165.4564 C.3     1  UNL1        0.0016
     11 C         140.9171  140.0852  166.9975 C.3     1  UNL1        0.0016
     12 C         141.6571  140.5301  168.2240 C.3     1  UNL1        0.0182
     13 C         140.4508  140.2259  169.0621 C.3     1  UNL1        0.0016
     14 C         144.6651  139.8232  164.2429 C.3     1  UNL1        0.2138
     15 C         143.6943  142.1408  161.2845 C.ar    1  UNL1        0.1233
     16 C         143.3429  141.0899  162.2955 C.ar    1  UNL1        0.1181
     17 N         144.5665  140.8086  163.1163 N.ar    1  UNL1       -0.2208
     18 N         145.6741  141.6857  162.6126 N.ar    1  UNL1       -0.0633
     19 N         145.1352  142.5091  161.4805 N.ar    1  UNL1       -0.1287
     20 C         142.3432  143.5972  157.8489 C.ar    1  UNL1        0.1547
     21 C         143.2699  143.0165  158.8756 C.ar    1  UNL1        0.0400
     22 C         142.7677  142.7215  160.2579 C.ar    1  UNL1        0.0241
     23 C         141.3387  143.0071  160.6135 C.ar    1  UNL1        0.0033
     24 C         140.4120  143.5878  159.5868 C.ar    1  UNL1        0.0207
     25 C         140.9143  143.8828  158.2046 C.ar    1  UNL1        0.0994
     26 N         139.9875  144.4635  157.1780 N.ar    1  UNL1       -0.2839
     27 C         139.9280  145.9020  156.7571 C.ar    1  UNL1        0.1826
     28 N         138.8613  146.0351  155.7110 N.ar    1  UNL1       -0.2280
     29 C         138.2615  144.6789  155.4853 C.ar    1  UNL1        0.0786
     30 C         137.1592  144.3516  154.5221 C.3     1  UNL1        0.0538
     31 C         138.9575  143.7076  156.3919 C.ar    1  UNL1        0.0963
     32 C         142.7150  142.8610  155.3853 C.3     1  UNL1        0.2525
     33 O         142.8455  143.8923  156.4667 O.3     1  UNL1       -0.4700
     34 C         143.3987  141.9872  165.8902 C.3     1  UNL1        0.1201
     35 C         142.7483  143.0591  165.0666 C.ar    1  UNL1       -0.0022
     36 C         141.2566  143.0838  164.9108 C.ar    1  UNL1       -0.0003
     37 C         140.6063  144.1557  164.0873 C.ar    1  UNL1        0.0294
     38 C         141.4476  145.2028  163.4197 C.ar    1  UNL1        0.1401
     39 F         140.7972  146.2747  162.5961 F       1  UNL1       -0.2042
     40 C         142.9392  145.1780  163.5755 C.ar    1  UNL1        0.0294
     41 C         143.5896  144.1062  164.3990 C.ar    1  UNL1       -0.0003
@<TRIPOS>BOND
     1    32    33    1
     2    33    20    1
     3    20    21   ar
     4    21    22   ar
     5    22    15    1
     6    15    16   ar
     7    16    17   ar
     8    17    14    1
     9    14     1    1
    10     1     2    2
    11     1     3   am
    12     3    34    1
    13    34    35    1
    14    35    36   ar
    15    36    37   ar
    16    37    38   ar
    17    38    39    1
    18    38    40   ar
    19    40    41   ar
    20     3     4    1
    21     4     5    1
    22     5     6    1
    23     6     7    1
    24     7     8    1
    25     8     9    1
    26     9    10    1
    27     9    11    1
    28    11    12    1
    29    12    13    1
    30    17    18   ar
    31    18    19   ar
    32    22    23   ar
    33    23    24   ar
    34    24    25   ar
    35    25    26    1
    36    26    27   ar
    37    27    28   ar
    38    28    29   ar
    39    29    30    1
    40    29    31   ar
    41    25    20   ar
    42    31    26   ar
    43    19    15   ar
    44    41    35   ar
    45    12     4    1
    46    10     5    1
    47    13     7    1
@<TRIPOS>MOLECULE
*****
 41 47 0 0 0
SMALL
GASTEIGER

@<TRIPOS>ATOM
      1 C         138.4702  138.6121  162.9839 C.2     1  UNL1        0.2508
      2 O         139.2919  137.4911  163.5481 O.2     1  UNL1       -0.2727
      3 N         138.2596  139.8636  163.7835 N.am    1  UNL1       -0.2754
      4 C         138.8706  139.9941  165.1473 C.3     1  UNL1        0.0756
      5 C         140.1411  140.7706  165.3287 C.3     1  UNL1        0.0182
      6 C         139.4817  140.1246  166.5109 C.3     1  UNL1        0.0016
      7 C         140.0927  140.2551  167.8745 C.3     1  UNL1        0.0001
      8 C         141.3632  141.0316  168.0559 C.3     1  UNL1        0.0000
      9 C         142.0226  141.6776  166.8737 C.3     1  UNL1        0.0001
     10 C         141.4116  141.5471  165.5100 C.3     1  UNL1        0.0016
     11 C         139.3254  140.1694  165.7516 C.3     1  UNL1        0.0016
     12 C         138.2112  139.3481  166.3295 C.3     1  UNL1        0.0182
     13 C         138.8222  139.4786  167.6932 C.3     1  UNL1        0.0016
     14 C         137.8592  138.4816  161.6203 C.3     1  UNL1        0.2138
     15 C         139.9783  140.3309  158.9453 C.ar    1  UNL1        0.1233
     16 C         139.8745  139.5047  160.1930 C.ar    1  UNL1        0.1181
     17 N         138.4201  139.2630  160.4692 N.ar    1  UNL1       -0.2208
     18 N         137.6251  139.9398  159.3923 N.ar    1  UNL1       -0.0633
     19 N         138.5881  140.5998  158.4505 N.ar    1  UNL1       -0.1287
     20 C         143.4890  140.2855  157.0952 C.ar    1  UNL1        0.1547
     21 C         142.2181  139.8115  157.7355 C.ar    1  UNL1        0.0400
     22 C         141.2492  140.8050  158.3050 C.ar    1  UNL1        0.0241
     23 C         141.5513  142.2725  158.2342 C.ar    1  UNL1        0.0033
     24 C         142.8222  142.7466  157.5939 C.ar    1  UNL1        0.0207
     25 C         143.7910  141.7531  157.0244 C.ar    1  UNL1        0.0994
     26 N         145.0620  142.2273  156.3841 N.ar    1  UNL1       -0.2839
     27 C         146.4025  142.3228  157.0502 C.ar    1  UNL1        0.1826
     28 N         147.3845  142.8436  156.0430 N.ar    1  UNL1       -0.2280
     29 C         146.6508  143.0701  154.7544 C.ar    1  UNL1        0.0786
     30 C         147.2478  143.5867  153.4790 C.3     1  UNL1        0.0538
     31 C         145.2154  142.6891  154.9652 C.ar    1  UNL1        0.0963
     32 C         144.0287  138.3762  155.4181 C.3     1  UNL1        0.2525
     33 O         144.4578  139.2921  156.5258 O.3     1  UNL1       -0.4700
     34 C         137.4380  140.9846  163.2195 C.3     1  UNL1        0.1201
     35 C         138.0623  142.3285  162.9863 C.ar    1  UNL1       -0.0022
     36 C         137.9342  143.4051  164.0229 C.ar    1  UNL1       -0.0003
     37 C         138.5585  144.7488  163.7897 C.ar    1  UNL1        0.0294
     38 C         139.3109  145.0161  162.5199 C.ar    1  UNL1        0.1401
     39 F         139.9353  146.3599  162.2867 F       1  UNL1       -0.2042
     40 C         139.4390  143.9395  161.4832 C.ar    1  UNL1        0.0294
     41 C         138.8147  142.5957  161.7165 C.ar    1  UNL1       -0.0003
@<TRIPOS>BOND
     1    32    33    1
     2    33    20    1
     3    20    21   ar
     4    21    22   ar
     5    22    15    1
     6    15    16   ar
     7    16    17   ar
     8    17    14    1
     9    14     1    1
    10     1     2    2
    11     1     3   am
    12     3    34    1
    13    34    35    1
    14    35    36   ar
    15    36    37   ar
    16    37    38   ar
    17    38    39    1
    18    38    40   ar
    19    40    41   ar
    20     3     4    1
    21     4     5    1
    22     5     6    1
    23     6     7    1
    24     7     8    1
    25     8     9    1
    26     9    10    1
    27     9    11    1
    28    11    12    1
    29    12    13    1
    30    17    18   ar
    31    18    19   ar
    32    22    23   ar
    33    23    24   ar
    34    24    25   ar
    35    25    26    1
    36    26    27   ar
    37    27    28   ar
    38    28    29   ar
    39    29    30    1
    40    29    31   ar
    41    25    20   ar
    42    31    26   ar
    43    19    15   ar
    44    41    35   ar
    45    12     4    1
    46    10     5    1
    47    13     7    1
@<TRIPOS>MOLECULE
*****
 41 47 0 0 0
SMALL
GASTEIGER

@<TRIPOS>ATOM
      1 C         143.1974  139.4200  165.5775 C.2     1  UNL1        0.2508
      2 O         143.4605  138.4432  166.6851 O.2     1  UNL1       -0.2727
      3 N         142.6438  140.7783  165.8913 N.am    1  UNL1       -0.2754
      4 C         142.3533  141.1598  167.3127 C.3     1  UNL1        0.0756
      5 C         141.1091  140.6590  167.9844 C.3     1  UNL1        0.0182
      6 C         142.0628  141.5412  168.7340 C.3     1  UNL1        0.0016
      7 C         141.7724  141.9227  170.1553 C.3     1  UNL1        0.0001
      8 C         140.5281  141.4219  170.8269 C.3     1  UNL1        0.0000
      9 C         139.5744  140.5397  170.0773 C.3     1  UNL1        0.0001
     10 C         139.8648  140.1583  168.6560 C.3     1  UNL1        0.0016
     11 C         142.0381  141.2435  168.0173 C.3     1  UNL1        0.0016
     12 C         143.3071  142.0420  168.0624 C.3     1  UNL1        0.0182
     13 C         143.0166  142.4234  169.4836 C.3     1  UNL1        0.0016
     14 C         143.4878  139.0385  164.1563 C.3     1  UNL1        0.2138
     15 C         140.6772  138.9931  161.4797 C.ar    1  UNL1        0.1233
     16 C         141.7846  139.6987  162.2048 C.ar    1  UNL1        0.1181
     17 N         142.3591  138.7474  163.2122 N.ar    1  UNL1       -0.2208
     18 N         141.6067  137.4538  163.1098 N.ar    1  UNL1       -0.0633
     19 N         140.5672  137.6056  162.0391 N.ar    1  UNL1       -0.1287
     20 C         138.9696  139.5177  157.9359 C.ar    1  UNL1        0.1547
     21 C         139.8181  138.9377  159.0284 C.ar    1  UNL1        0.0400
     22 C         139.8287  139.5731  160.3872 C.ar    1  UNL1        0.0241
     23 C         138.9909  140.7884  160.6534 C.ar    1  UNL1        0.0033
     24 C         138.1424  141.3684  159.5609 C.ar    1  UNL1        0.0207
     25 C         138.1318  140.7331  158.2022 C.ar    1  UNL1        0.0994
     26 N         137.2832  141.3132  157.1096 N.ar    1  UNL1       -0.2839
     27 C         137.5048  142.6298  156.4261 C.ar    1  UNL1        0.1826
     28 N         136.4227  142.8088  155.4029 N.ar    1  UNL1       -0.2280
     29 C         135.5323  141.6026  155.4540 C.ar    1  UNL1        0.0786
     30 C         134.3225  141.3631  154.6003 C.3     1  UNL1        0.0538
     31 C         136.0642  140.6784  156.5089 C.ar    1  UNL1        0.0963
     32 C         140.2468  138.4493  155.9416 C.3     1  UNL1        0.2525
     33 O         138.9589  138.8824  156.5772 O.3     1  UNL1       -0.4700
     34 C         142.3806  141.7551  164.7839 C.3     1  UNL1        0.1201
     35 C         141.0493  142.4396  164.6881 C.ar    1  UNL1       -0.0022
     36 C         139.7908  141.6261  164.6217 C.ar    1  UNL1       -0.0003
     37 C         138.4595  142.3106  164.5260 C.ar    1  UNL1        0.0294
     38 C         138.3868  143.8085  164.4965 C.ar    1  UNL1        0.1401
     39 F         137.0554  144.4930  164.4007 F       1  UNL1       -0.2042
     40 C         139.6452  144.6220  164.5629 C.ar    1  UNL1        0.0294
     41 C         140.9765  143.9376  164.6587 C.ar    1  UNL1       -0.0003
@<TRIPOS>BOND
     1    32    33    1
     2    33    20    1
     3    20    21   ar
     4    21    22   ar
     5    22    15    1
     6    15    16   ar
     7    16    17   ar
     8    17    14    1
     9    14     1    1
    10     1     2    2
    11     1     3   am
    12     3    34    1
    13    34    35    1
    14    35    36   ar
    15    36    37   ar
    16    37    38   ar
    17    38    39    1
    18    38    40   ar
    19    40    41   ar
    20     3     4    1
    21     4     5    1
    22     5     6    1
    23     6     7    1
    24     7     8    1
    25     8     9    1
    26     9    10    1
    27     9    11    1
    28    11    12    1
    29    12    13    1
    30    17    18   ar
    31    18    19   ar
    32    22    23   ar
    33    23    24   ar
    34    24    25   ar
    35    25    26    1
    36    26    27   ar
    37    27    28   ar
    38    28    29   ar
    39    29    30    1
    40    29    31   ar
    41    25    20   ar
    42    31    26   ar
    43    19    15   ar
    44    41    35   ar
    45    12     4    1
    46    10     5    1
    47    13     7    1
