@<TRIPOS>MOLECULE
*****
 34 38 0 0 0
SMALL
GASTEIGER

@<TRIPOS>ATOM
      1 N         142.9392  144.1964  162.5300 N.3     1  UNL1       -0.2710
      2 C         142.1400  144.0326  161.2712 C.3     1  UNL1        0.0735
      3 C         140.6774  144.3653  161.2628 C.3     1  UNL1        0.0331
      4 C         140.0140  144.8617  162.5132 C.3     1  UNL1        0.0570
      5 C         140.8132  145.0255  163.7719 C.3     1  UNL1        0.0331
      6 C         142.2758  144.6928  163.7803 C.3     1  UNL1        0.0735
      7 N         138.5513  145.1944  162.5048 N.3     1  UNL1       -0.2934
      8 H         138.2873  145.3369  161.5299 H       1  UNL1        0.1236
      9 C         137.5596  144.2304  163.0856 C.3     1  UNL1        0.1152
     10 C         137.7818  142.7532  162.9502 C.ar    1  UNL1        0.0782
     11 C         138.0374  141.9183  164.1699 C.ar    1  UNL1        0.0562
     12 C         138.2596  140.4411  164.0345 C.ar    1  UNL1        0.1752
     13 C         138.2262  139.7987  162.6793 C.ar    1  UNL1        0.1914
     14 C         137.9707  140.6336  161.4597 C.ar    1  UNL1        0.1384
     15 N         137.7484  142.1109  161.5951 N.ar    1  UNL1       -0.2434
     16 O         138.4484  138.3215  162.5439 O.3     1  UNL1       -0.4668
     17 C         138.7040  137.4866  163.7636 C.3     1  UNL1        0.2527
     18 C         138.7374  138.1289  165.1187 C.3     1  UNL1        0.2526
     19 O         138.5152  139.6062  165.2541 O.3     1  UNL1       -0.4683
     20 C         144.4019  143.8637  162.5383 C.3     1  UNL1        0.0970
     21 C         144.8701  142.5550  163.1022 C.3     1  UNL1        0.1279
     22 C         143.1458  141.8352  167.1959 C.ar    1  UNL1        0.2264
     23 C         142.1677  140.7188  167.4120 C.ar    1  UNL1        0.0594
     24 C         141.7643  139.8422  166.2636 C.ar    1  UNL1        0.0270
     25 C         142.3390  140.0821  164.8990 C.ar    1  UNL1        0.1158
     26 N         141.9356  139.2056  163.7505 N.ar    1  UNL1       -0.2358
     27 C         142.5104  139.4455  162.3860 C.ar    1  UNL1        0.1595
     28 C         143.4886  140.5620  162.1698 C.ar    1  UNL1        0.2813
     29 O         144.0633  140.8019  160.8053 O.2     1  UNL1       -0.2652
     30 N         143.8920  141.4385  163.3183 N.ar    1  UNL1       -0.2766
     31 C         143.3172  141.1986  164.6829 C.ar    1  UNL1        0.1670
     32 N         143.7205  142.0751  165.8314 N.ar    1  UNL1       -0.1926
     33 C         142.8458  142.5903  169.6636 C.3     1  UNL1        0.2542
     34 O         143.5492  142.7117  168.3444 O.3     1  UNL1       -0.4561
@<TRIPOS>BOND
     1    33    34    1
     2    34    22    1
     3    22    23   ar
     4    23    24   ar
     5    24    25   ar
     6    25    26   ar
     7    26    27   ar
     8    27    28   ar
     9    28    29    2
    10    28    30   ar
    11    30    21    1
    12    21    20    1
    13    20     1    1
    14     1     2    1
    15     2     3    1
    16     3     4    1
    17     4     7    1
    18     7     9    1
    19     9    10    1
    20    10    11   ar
    21    11    12   ar
    22    12    13   ar
    23    13    14   ar
    24    14    15   ar
    25    13    16    1
    26    16    17    1
    27    17    18    1
    28    18    19    1
    29     4     5    1
    30     5     6    1
    31    30    31   ar
    32    31    32   ar
    33    32    22   ar
    34    31    25   ar
    35     6     1    1
    36    15    10   ar
    37    19    12    1
    38     7     8    1
@<TRIPOS>MOLECULE
*****
 34 38 0 0 0
SMALL
GASTEIGER

@<TRIPOS>ATOM
      1 N         138.1590  139.8889  162.4610 N.3     1  UNL1       -0.2710
      2 C         137.8270  140.6185  163.7288 C.3     1  UNL1        0.0735
      3 C         137.6842  142.1116  163.7195 C.3     1  UNL1        0.0331
      4 C         137.8733  142.8751  162.4423 C.3     1  UNL1        0.0570
      5 C         138.2053  142.1455  161.1745 C.3     1  UNL1        0.0331
      6 C         138.3481  140.6524  161.1838 C.3     1  UNL1        0.0735
      7 N         137.7304  144.3683  162.4329 N.3     1  UNL1       -0.2934
      8 H         137.0047  144.5990  163.1115 H       1  UNL1        0.1236
      9 C         138.9116  145.2368  162.7501 C.3     1  UNL1        0.1152
     10 C         140.3002  144.6767  162.6592 C.ar    1  UNL1        0.0782
     11 C         140.9829  144.1609  163.8912 C.ar    1  UNL1        0.0562
     12 C         142.3715  143.6009  163.8003 C.ar    1  UNL1        0.1752
     13 C         143.0773  143.5567  162.4775 C.ar    1  UNL1        0.1914
     14 C         142.3945  144.0725  161.2455 C.ar    1  UNL1        0.1384
     15 N         141.0059  144.6325  161.3364 N.ar    1  UNL1       -0.2434
     16 O         144.4658  142.9967  162.3866 O.3     1  UNL1       -0.4668
     17 C         145.1486  142.4809  163.6186 C.3     1  UNL1        0.2527
     18 C         144.4429  142.5251  164.9414 C.3     1  UNL1        0.2526
     19 O         143.0542  143.0851  165.0323 O.3     1  UNL1       -0.4683
     20 C         138.3019  138.3957  162.4704 C.3     1  UNL1        0.0970
     21 C         139.0966  137.7251  163.5515 C.3     1  UNL1        0.1279
     22 C         140.0050  139.5925  167.5437 C.ar    1  UNL1        0.2264
     23 C         141.3957  140.0617  167.8531 C.ar    1  UNL1        0.0594
     24 C         142.4836  139.9085  166.8318 C.ar    1  UNL1        0.0270
     25 C         142.1808  139.2861  165.5011 C.ar    1  UNL1        0.1158
     26 N         143.2687  139.1329  164.4798 N.ar    1  UNL1       -0.2358
     27 C         142.9659  138.5105  163.1491 C.ar    1  UNL1        0.1595
     28 C         141.5751  138.0412  162.8396 C.ar    1  UNL1        0.2813
     29 O         141.2724  137.4187  161.5089 O.2     1  UNL1       -0.2652
     30 N         140.4873  138.1944  163.8609 N.ar    1  UNL1       -0.2766
     31 C         140.7901  138.8168  165.1917 C.ar    1  UNL1        0.1670
     32 N         139.7022  138.9700  166.2130 N.ar    1  UNL1       -0.1926
     33 C         139.1668  140.5386  169.8135 C.3     1  UNL1        0.2542
     34 O         138.9171  139.7457  168.5650 O.3     1  UNL1       -0.4561
@<TRIPOS>BOND
     1    33    34    1
     2    34    22    1
     3    22    23   ar
     4    23    24   ar
     5    24    25   ar
     6    25    26   ar
     7    26    27   ar
     8    27    28   ar
     9    28    29    2
    10    28    30   ar
    11    30    21    1
    12    21    20    1
    13    20     1    1
    14     1     2    1
    15     2     3    1
    16     3     4    1
    17     4     7    1
    18     7     9    1
    19     9    10    1
    20    10    11   ar
    21    11    12   ar
    22    12    13   ar
    23    13    14   ar
    24    14    15   ar
    25    13    16    1
    26    16    17    1
    27    17    18    1
    28    18    19    1
    29     4     5    1
    30     5     6    1
    31    30    31   ar
    32    31    32   ar
    33    32    22   ar
    34    31    25   ar
    35     6     1    1
    36    15    10   ar
    37    19    12    1
    38     7     8    1
@<TRIPOS>MOLECULE
*****
 34 38 0 0 0
SMALL
GASTEIGER

@<TRIPOS>ATOM
      1 N         137.8576  142.9397  163.0849 N.3     1  UNL1       -0.2710
      2 C         137.9848  142.6582  161.6170 C.3     1  UNL1        0.0735
      3 C         137.9934  141.2419  161.1230 C.3     1  UNL1        0.0331
      4 C         137.8747  140.1072  162.0968 C.3     1  UNL1        0.0570
      5 C         137.7475  140.3887  163.5646 C.3     1  UNL1        0.0331
      6 C         137.7389  141.8050  164.0587 C.3     1  UNL1        0.0735
      7 N         137.8833  138.6909  161.6027 N.3     1  UNL1       -0.2934
      8 H         137.2889  138.6644  160.7742 H       1  UNL1        0.1236
      9 C         139.1791  138.0355  161.2270 C.3     1  UNL1        0.1152
     10 C         140.3981  138.2424  162.0762 C.ar    1  UNL1        0.0782
     11 C         141.4467  139.2290  161.6553 C.ar    1  UNL1        0.0562
     12 C         142.6657  139.4359  162.5045 C.ar    1  UNL1        0.1752
     13 C         142.8362  138.6563  163.7746 C.ar    1  UNL1        0.1914
     14 C         141.7876  137.6697  164.1955 C.ar    1  UNL1        0.1384
     15 N         140.5686  137.4628  163.3462 N.ar    1  UNL1       -0.2434
     16 O         144.0552  138.8633  164.6238 O.3     1  UNL1       -0.4668
     17 C         145.1038  139.8498  164.2029 C.3     1  UNL1        0.2527
     18 C         144.9334  140.6295  162.9328 C.3     1  UNL1        0.2526
     19 O         143.7143  140.4225  162.0836 O.3     1  UNL1       -0.4683
     20 C         137.8490  144.3560  163.5789 C.3     1  UNL1        0.0970
     21 C         138.9181  144.8289  164.5189 C.3     1  UNL1        0.1279
     22 C         141.0499  141.9723  167.2657 C.ar    1  UNL1        0.2264
     23 C         142.4844  141.6160  167.0104 C.ar    1  UNL1        0.0594
     24 C         143.2083  142.2118  165.8395 C.ar    1  UNL1        0.0270
     25 C         142.4977  143.1640  164.9239 C.ar    1  UNL1        0.1158
     26 N         143.2216  143.7598  163.7530 N.ar    1  UNL1       -0.2358
     27 C         142.5110  144.7120  162.8374 C.ar    1  UNL1        0.1595
     28 C         141.0764  145.0684  163.0927 C.ar    1  UNL1        0.2813
     29 O         140.3658  146.0206  162.1771 O.2     1  UNL1       -0.2652
     30 N         140.3525  144.4726  164.2636 N.ar    1  UNL1       -0.2766
     31 C         141.0632  143.5203  165.1792 C.ar    1  UNL1        0.1670
     32 N         140.3393  142.9245  166.3501 N.ar    1  UNL1       -0.1926
     33 C         139.4512  140.1734  168.2443 C.3     1  UNL1        0.2542
     34 O         140.3261  141.3765  168.4366 O.3     1  UNL1       -0.4561
@<TRIPOS>BOND
     1    33    34    1
     2    34    22    1
     3    22    23   ar
     4    23    24   ar
     5    24    25   ar
     6    25    26   ar
     7    26    27   ar
     8    27    28   ar
     9    28    29    2
    10    28    30   ar
    11    30    21    1
    12    21    20    1
    13    20     1    1
    14     1     2    1
    15     2     3    1
    16     3     4    1
    17     4     7    1
    18     7     9    1
    19     9    10    1
    20    10    11   ar
    21    11    12   ar
    22    12    13   ar
    23    13    14   ar
    24    14    15   ar
    25    13    16    1
    26    16    17    1
    27    17    18    1
    28    18    19    1
    29     4     5    1
    30     5     6    1
    31    30    31   ar
    32    31    32   ar
    33    32    22   ar
    34    31    25   ar
    35     6     1    1
    36    15    10   ar
    37    19    12    1
    38     7     8    1
@<TRIPOS>MOLECULE
*****
 34 38 0 0 0
SMALL
GASTEIGER

@<TRIPOS>ATOM
      1 N         142.9844  144.0724  162.4176 N.3     1  UNL1       -0.2710
      2 C         142.1559  143.7476  161.2101 C.3     1  UNL1        0.0735
      3 C         140.7025  144.1172  161.1763 C.3     1  UNL1        0.0331
      4 C         140.0778  144.8115  162.3500 C.3     1  UNL1        0.0570
      5 C         140.9064  145.1362  163.5575 C.3     1  UNL1        0.0331
      6 C         142.3597  144.7666  163.5913 C.3     1  UNL1        0.0735
      7 N         138.6244  145.1811  162.3163 N.3     1  UNL1       -0.2934
      8 H         138.3426  145.1786  161.3360 H       1  UNL1        0.1236
      9 C         137.6212  144.3476  163.0572 C.3     1  UNL1        0.1152
     10 C         137.8261  142.8675  163.1881 C.ar    1  UNL1        0.0782
     11 C         138.1432  142.2697  164.5268 C.ar    1  UNL1        0.0562
     12 C         138.3481  140.7895  164.6576 C.ar    1  UNL1        0.1752
     13 C         138.2359  139.9071  163.4498 C.ar    1  UNL1        0.1914
     14 C         137.9188  140.5050  162.1111 C.ar    1  UNL1        0.1384
     15 N         137.7139  141.9852  161.9803 N.ar    1  UNL1       -0.2434
     16 O         138.4408  138.4270  163.5806 O.3     1  UNL1       -0.4668
     17 C         138.7579  137.8292  164.9193 C.3     1  UNL1        0.2527
     18 C         138.8701  138.7115  166.1271 C.3     1  UNL1        0.2526
     19 O         138.6652  140.1917  165.9963 O.3     1  UNL1       -0.4683
     20 C         144.4379  143.7028  162.4513 C.3     1  UNL1        0.0970
     21 C         144.9111  142.6024  163.3543 C.3     1  UNL1        0.1279
     22 C         143.6096  139.2846  160.6070 C.ar    1  UNL1        0.2264
     23 C         142.6436  138.2447  161.0921 C.ar    1  UNL1        0.0594
     24 C         142.1113  138.3108  162.4929 C.ar    1  UNL1        0.0270
     25 C         142.5452  139.4167  163.4087 C.ar    1  UNL1        0.1158
     26 N         142.0129  139.4828  164.8095 N.ar    1  UNL1       -0.2358
     27 C         142.4468  140.5887  165.7253 C.ar    1  UNL1        0.1595
     28 C         143.4129  141.6286  165.2402 C.ar    1  UNL1        0.2813
     29 O         143.8467  142.7346  166.1560 O.2     1  UNL1       -0.2652
     30 N         143.9451  141.5626  163.8394 N.ar    1  UNL1       -0.2766
     31 C         143.5112  140.4566  162.9236 C.ar    1  UNL1        0.1670
     32 N         144.0434  140.3905  161.5228 N.ar    1  UNL1       -0.1926
     33 C         143.5036  140.0354  158.1221 C.3     1  UNL1        0.2542
     34 O         144.1418  139.2185  159.2062 O.3     1  UNL1       -0.4561
@<TRIPOS>BOND
     1    33    34    1
     2    34    22    1
     3    22    23   ar
     4    23    24   ar
     5    24    25   ar
     6    25    26   ar
     7    26    27   ar
     8    27    28   ar
     9    28    29    2
    10    28    30   ar
    11    30    21    1
    12    21    20    1
    13    20     1    1
    14     1     2    1
    15     2     3    1
    16     3     4    1
    17     4     7    1
    18     7     9    1
    19     9    10    1
    20    10    11   ar
    21    11    12   ar
    22    12    13   ar
    23    13    14   ar
    24    14    15   ar
    25    13    16    1
    26    16    17    1
    27    17    18    1
    28    18    19    1
    29     4     5    1
    30     5     6    1
    31    30    31   ar
    32    31    32   ar
    33    32    22   ar
    34    31    25   ar
    35     6     1    1
    36    15    10   ar
    37    19    12    1
    38     7     8    1
@<TRIPOS>MOLECULE
*****
 34 38 0 0 0
SMALL
GASTEIGER

@<TRIPOS>ATOM
      1 N         143.3007  140.4431  160.5034 N.3     1  UNL1       -0.2710
      2 C         141.8101  140.3892  160.6613 C.3     1  UNL1        0.0735
      3 C         141.1724  139.2317  161.3710 C.3     1  UNL1        0.0331
      4 C         142.0255  138.1282  161.9228 C.3     1  UNL1        0.0570
      5 C         143.5162  138.1821  161.7648 C.3     1  UNL1        0.0331
      6 C         144.1538  139.3396  161.0551 C.3     1  UNL1        0.0735
      7 N         141.3879  136.9707  162.6325 N.3     1  UNL1       -0.2934
      8 H         142.1235  136.2827  162.7937 H       1  UNL1        0.1236
      9 C         140.6993  137.1846  163.9479 C.3     1  UNL1        0.1152
     10 C         141.2360  138.1929  164.9201 C.ar    1  UNL1        0.0782
     11 C         140.3968  139.3703  165.3194 C.ar    1  UNL1        0.0562
     12 C         140.9334  140.3786  166.2917 C.ar    1  UNL1        0.1752
     13 C         142.3094  140.2094  166.8647 C.ar    1  UNL1        0.1914
     14 C         143.1486  139.0320  166.4655 C.ar    1  UNL1        0.1384
     15 N         142.6118  138.0237  165.4931 N.ar    1  UNL1       -0.2434
     16 O         142.8460  141.2177  167.8370 O.3     1  UNL1       -0.4668
     17 C         142.0068  142.3951  168.2363 C.3     1  UNL1        0.2527
     18 C         140.6310  142.5643  167.6633 C.3     1  UNL1        0.2526
     19 O         140.0942  141.5560  166.6909 O.3     1  UNL1       -0.4683
     20 C         143.9383  141.6006  159.7936 C.3     1  UNL1        0.0970
     21 C         144.5406  142.7248  160.5831 C.3     1  UNL1        0.1279
     22 C         140.7922  145.1252  161.2443 C.ar    1  UNL1        0.2264
     23 C         140.3151  145.4019  162.6392 C.ar    1  UNL1        0.0594
     24 C         141.0874  144.8785  163.8137 C.ar    1  UNL1        0.0270
     25 C         142.3369  144.0784  163.5933 C.ar    1  UNL1        0.1158
     26 N         143.1093  143.5550  164.7679 N.ar    1  UNL1       -0.2358
     27 C         144.3588  142.7549  164.5475 C.ar    1  UNL1        0.1595
     28 C         144.8359  142.4781  163.1525 C.ar    1  UNL1        0.2813
     29 O         146.0854  141.6780  162.9321 O.2     1  UNL1       -0.2652
     30 N         144.0636  143.0015  161.9780 N.ar    1  UNL1       -0.2766
     31 C         142.8140  143.8017  162.1985 C.ar    1  UNL1        0.1670
     32 N         142.0416  144.3251  161.0239 N.ar    1  UNL1       -0.1926
     33 C         140.5683  145.4939  158.6823 C.3     1  UNL1        0.2542
     34 O         140.0198  145.6486  160.0698 O.3     1  UNL1       -0.4561
@<TRIPOS>BOND
     1    33    34    1
     2    34    22    1
     3    22    23   ar
     4    23    24   ar
     5    24    25   ar
     6    25    26   ar
     7    26    27   ar
     8    27    28   ar
     9    28    29    2
    10    28    30   ar
    11    30    21    1
    12    21    20    1
    13    20     1    1
    14     1     2    1
    15     2     3    1
    16     3     4    1
    17     4     7    1
    18     7     9    1
    19     9    10    1
    20    10    11   ar
    21    11    12   ar
    22    12    13   ar
    23    13    14   ar
    24    14    15   ar
    25    13    16    1
    26    16    17    1
    27    17    18    1
    28    18    19    1
    29     4     5    1
    30     5     6    1
    31    30    31   ar
    32    31    32   ar
    33    32    22   ar
    34    31    25   ar
    35     6     1    1
    36    15    10   ar
    37    19    12    1
    38     7     8    1
@<TRIPOS>MOLECULE
*****
 34 38 0 0 0
SMALL
GASTEIGER

@<TRIPOS>ATOM
      1 N         141.1054  144.8253  162.7129 N.3     1  UNL1       -0.2710
      2 C         141.4488  144.0906  161.4511 C.3     1  UNL1        0.0735
      3 C         142.8263  143.5278  161.2621 C.3     1  UNL1        0.0331
      4 C         143.8604  143.6998  162.3350 C.3     1  UNL1        0.0570
      5 C         143.5169  144.4345  163.5968 C.3     1  UNL1        0.0331
      6 C         142.1394  144.9972  163.7858 C.3     1  UNL1        0.0735
      7 N         145.2380  143.1370  162.1461 N.3     1  UNL1       -0.2934
      8 H         145.8857  143.7893  162.5880 H       1  UNL1        0.1236
      9 C         145.5697  141.7728  162.6740 C.3     1  UNL1        0.1152
     10 C         144.5654  140.6636  162.5698 C.ar    1  UNL1        0.0782
     11 C         143.8809  140.1532  163.8032 C.ar    1  UNL1        0.0562
     12 C         142.8766  139.0440  163.6989 C.ar    1  UNL1        0.1752
     13 C         142.5566  138.4451  162.3614 C.ar    1  UNL1        0.1914
     14 C         143.2410  138.9555  161.1281 C.ar    1  UNL1        0.1384
     15 N         144.2454  140.0648  161.2323 N.ar    1  UNL1       -0.2434
     16 O         141.5523  137.3359  162.2572 O.3     1  UNL1       -0.4668
     17 C         140.8678  136.8255  163.4905 C.3     1  UNL1        0.2527
     18 C         141.1877  137.4244  164.8280 C.3     1  UNL1        0.2526
     19 O         142.1922  138.5336  164.9323 O.3     1  UNL1       -0.4683
     20 C         139.7278  145.3880  162.9018 C.3     1  UNL1        0.0970
     21 C         138.7771  144.7373  163.8624 C.3     1  UNL1        0.1279
     22 C         140.2256  142.5194  167.5001 C.ar    1  UNL1        0.2264
     23 C         140.1231  141.0240  167.5568 C.ar    1  UNL1        0.0594
     24 C         139.5378  140.2679  166.4011 C.ar    1  UNL1        0.0270
     25 C         139.0550  141.0072  165.1886 C.ar    1  UNL1        0.1158
     26 N         138.4697  140.2511  164.0328 N.ar    1  UNL1       -0.2358
     27 C         137.9869  140.9904  162.8203 C.ar    1  UNL1        0.1595
     28 C         138.0893  142.4858  162.7634 C.ar    1  UNL1        0.2813
     29 O         137.6065  143.2251  161.5509 O.2     1  UNL1       -0.2652
     30 N         138.6746  143.2419  163.9192 N.ar    1  UNL1       -0.2766
     31 C         139.1574  142.5025  165.1318 C.ar    1  UNL1        0.1670
     32 N         139.7427  143.2586  166.2875 N.ar    1  UNL1       -0.1926
     33 C         140.3976  142.9398  170.0581 C.3     1  UNL1        0.2542
     34 O         140.8108  143.2755  168.6558 O.3     1  UNL1       -0.4561
@<TRIPOS>BOND
     1    33    34    1
     2    34    22    1
     3    22    23   ar
     4    23    24   ar
     5    24    25   ar
     6    25    26   ar
     7    26    27   ar
     8    27    28   ar
     9    28    29    2
    10    28    30   ar
    11    30    21    1
    12    21    20    1
    13    20     1    1
    14     1     2    1
    15     2     3    1
    16     3     4    1
    17     4     7    1
    18     7     9    1
    19     9    10    1
    20    10    11   ar
    21    11    12   ar
    22    12    13   ar
    23    13    14   ar
    24    14    15   ar
    25    13    16    1
    26    16    17    1
    27    17    18    1
    28    18    19    1
    29     4     5    1
    30     5     6    1
    31    30    31   ar
    32    31    32   ar
    33    32    22   ar
    34    31    25   ar
    35     6     1    1
    36    15    10   ar
    37    19    12    1
    38     7     8    1
@<TRIPOS>MOLECULE
*****
 34 38 0 0 0
SMALL
GASTEIGER

@<TRIPOS>ATOM
      1 N         143.0403  138.9023  161.9878 N.3     1  UNL1       -0.2710
      2 C         142.8826  139.8461  160.8326 C.3     1  UNL1        0.0735
      3 C         143.5952  141.1659  160.8398 C.3     1  UNL1        0.0331
      4 C         144.4656  141.5420  162.0020 C.3     1  UNL1        0.0570
      5 C         144.6233  140.5982  163.1572 C.3     1  UNL1        0.0331
      6 C         143.9107  139.2783  163.1501 C.3     1  UNL1        0.0735
      7 N         145.1783  142.8619  162.0092 N.3     1  UNL1       -0.2934
      8 H         145.4375  143.0618  161.0432 H       1  UNL1        0.1236
      9 C         144.4865  144.0849  162.5340 C.3     1  UNL1        0.1152
     10 C         142.9976  144.2166  162.4080 C.ar    1  UNL1        0.0782
     11 C         142.1224  144.0140  163.6093 C.ar    1  UNL1        0.0562
     12 C         140.6336  144.1456  163.4833 C.ar    1  UNL1        0.1752
     13 C         140.0198  144.4799  162.1560 C.ar    1  UNL1        0.1914
     14 C         140.8950  144.6825  160.9547 C.ar    1  UNL1        0.1384
     15 N         142.3839  144.5508  161.0808 N.ar    1  UNL1       -0.2434
     16 O         138.5310  144.6116  162.0300 O.3     1  UNL1       -0.4668
     17 C         137.6558  144.4090  163.2313 C.3     1  UNL1        0.2527
     18 C         138.2695  144.0747  164.5585 C.3     1  UNL1        0.2526
     19 O         139.7584  143.9430  164.6845 O.3     1  UNL1       -0.4683
     20 C         142.3276  137.5824  161.9806 C.3     1  UNL1        0.0970
     21 C         141.2566  137.3029  162.9929 C.3     1  UNL1        0.1279
     22 C         141.5330  139.5389  166.8883 C.ar    1  UNL1        0.2264
     23 C         140.5208  140.5948  167.2203 C.ar    1  UNL1        0.0594
     24 C         139.4165  140.9055  166.2540 C.ar    1  UNL1        0.0270
     25 C         139.3243  140.1602  164.9555 C.ar    1  UNL1        0.1158
     26 N         138.2200  140.4709  163.9892 N.ar    1  UNL1       -0.2358
     27 C         138.1278  139.7255  162.6907 C.ar    1  UNL1        0.1595
     28 C         139.1400  138.6695  162.3586 C.ar    1  UNL1        0.2813
     29 O         139.0479  137.9242  161.0602 O.2     1  UNL1       -0.2652
     30 N         140.2444  138.3588  163.3250 N.ar    1  UNL1       -0.2766
     31 C         140.3365  139.1042  164.6235 C.ar    1  UNL1        0.1670
     32 N         141.4409  138.7935  165.5899 N.ar    1  UNL1       -0.1926
     33 C         142.4725  139.5495  169.3105 C.3     1  UNL1        0.2542
     34 O         142.6374  139.2282  167.8547 O.3     1  UNL1       -0.4561
@<TRIPOS>BOND
     1    33    34    1
     2    34    22    1
     3    22    23   ar
     4    23    24   ar
     5    24    25   ar
     6    25    26   ar
     7    26    27   ar
     8    27    28   ar
     9    28    29    2
    10    28    30   ar
    11    30    21    1
    12    21    20    1
    13    20     1    1
    14     1     2    1
    15     2     3    1
    16     3     4    1
    17     4     7    1
    18     7     9    1
    19     9    10    1
    20    10    11   ar
    21    11    12   ar
    22    12    13   ar
    23    13    14   ar
    24    14    15   ar
    25    13    16    1
    26    16    17    1
    27    17    18    1
    28    18    19    1
    29     4     5    1
    30     5     6    1
    31    30    31   ar
    32    31    32   ar
    33    32    22   ar
    34    31    25   ar
    35     6     1    1
    36    15    10   ar
    37    19    12    1
    38     7     8    1
@<TRIPOS>MOLECULE
*****
 34 38 0 0 0
SMALL
GASTEIGER

@<TRIPOS>ATOM
      1 N         144.6044  140.3463  163.4548 N.3     1  UNL1       -0.2710
      2 C         144.1546  140.1228  162.0414 C.3     1  UNL1        0.0735
      3 C         143.1420  139.0592  161.7359 C.3     1  UNL1        0.0331
      4 C         142.5792  138.2191  162.8438 C.3     1  UNL1        0.0570
      5 C         143.0291  138.4426  164.2572 C.3     1  UNL1        0.0331
      6 C         144.0417  139.5062  164.5627 C.3     1  UNL1        0.0735
      7 N         141.5666  137.1555  162.5384 N.3     1  UNL1       -0.2934
      8 H         141.9892  136.2637  162.7965 H       1  UNL1        0.1236
      9 C         140.2150  137.1982  163.1875 C.3     1  UNL1        0.1152
     10 C         139.5674  138.5180  163.4854 C.ar    1  UNL1        0.0782
     11 C         139.4556  139.5582  162.4105 C.ar    1  UNL1        0.0562
     12 C         138.8081  140.8780  162.7085 C.ar    1  UNL1        0.1752
     13 C         138.2724  141.1576  164.0814 C.ar    1  UNL1        0.1914
     14 C         138.3842  140.1174  165.1563 C.ar    1  UNL1        0.1384
     15 N         139.0318  138.7976  164.8583 N.ar    1  UNL1       -0.2434
     16 O         137.6248  142.4774  164.3794 O.3     1  UNL1       -0.4668
     17 C         137.5130  143.5176  163.3044 C.3     1  UNL1        0.2527
     18 C         138.0487  143.2380  161.9316 C.3     1  UNL1        0.2526
     19 O         138.6962  141.9182  161.6335 O.3     1  UNL1       -0.4683
     20 C         145.6171  141.4100  163.7602 C.3     1  UNL1        0.0970
     21 C         145.1720  142.7355  164.3031 C.3     1  UNL1        0.1279
     22 C         142.4563  141.9558  167.8055 C.ar    1  UNL1        0.2264
     23 C         141.0101  142.3477  167.7350 C.ar    1  UNL1        0.0594
     24 C         140.4692  142.9995  166.4971 C.ar    1  UNL1        0.0270
     25 C         141.3744  143.2594  165.3296 C.ar    1  UNL1        0.1158
     26 N         140.8334  143.9113  164.0917 N.ar    1  UNL1       -0.2358
     27 C         141.7386  144.1712  162.9242 C.ar    1  UNL1        0.1595
     28 C         143.1849  143.7793  162.9947 C.ar    1  UNL1        0.2813
     29 O         144.0901  144.0392  161.8272 O.2     1  UNL1       -0.2652
     30 N         143.7258  143.1274  164.2326 N.ar    1  UNL1       -0.2766
     31 C         142.8205  142.8675  165.4001 C.ar    1  UNL1        0.1670
     32 N         143.3615  142.2157  166.6380 N.ar    1  UNL1       -0.1926
     33 C         142.4119  140.0102  169.5268 C.3     1  UNL1        0.2542
     34 O         142.9972  141.3039  169.0434 O.3     1  UNL1       -0.4561
@<TRIPOS>BOND
     1    33    34    1
     2    34    22    1
     3    22    23   ar
     4    23    24   ar
     5    24    25   ar
     6    25    26   ar
     7    26    27   ar
     8    27    28   ar
     9    28    29    2
    10    28    30   ar
    11    30    21    1
    12    21    20    1
    13    20     1    1
    14     1     2    1
    15     2     3    1
    16     3     4    1
    17     4     7    1
    18     7     9    1
    19     9    10    1
    20    10    11   ar
    21    11    12   ar
    22    12    13   ar
    23    13    14   ar
    24    14    15   ar
    25    13    16    1
    26    16    17    1
    27    17    18    1
    28    18    19    1
    29     4     5    1
    30     5     6    1
    31    30    31   ar
    32    31    32   ar
    33    32    22   ar
    34    31    25   ar
    35     6     1    1
    36    15    10   ar
    37    19    12    1
    38     7     8    1
@<TRIPOS>MOLECULE
*****
 34 38 0 0 0
SMALL
GASTEIGER

@<TRIPOS>ATOM
      1 N         141.8182  138.1230  163.5930 N.3     1  UNL1       -0.2710
      2 C         142.2292  138.5393  162.2118 C.3     1  UNL1        0.0735
      3 C         143.4785  139.3451  162.0119 C.3     1  UNL1        0.0331
      4 C         144.3168  139.7345  163.1933 C.3     1  UNL1        0.0570
      5 C         143.9058  139.3181  164.5745 C.3     1  UNL1        0.0331
      6 C         142.6565  138.5124  164.7744 C.3     1  UNL1        0.0735
      7 N         145.5661  140.5403  162.9934 N.3     1  UNL1       -0.2934
      8 H         145.7857  140.5012  161.9981 H       1  UNL1        0.1236
      9 C         145.5961  141.9875  163.3869 C.3     1  UNL1        0.1152
     10 C         144.3786  142.8422  163.1952 C.ar    1  UNL1        0.0782
     11 C         143.9117  143.1829  161.8109 C.ar    1  UNL1        0.0562
     12 C         142.6942  144.0377  161.6192 C.ar    1  UNL1        0.1752
     13 C         141.9433  144.5518  162.8117 C.ar    1  UNL1        0.1914
     14 C         142.4102  144.2112  164.1959 C.ar    1  UNL1        0.1384
     15 N         143.6278  143.3563  164.3876 N.ar    1  UNL1       -0.2434
     16 O         140.7258  145.4066  162.6200 O.3     1  UNL1       -0.4668
     17 C         140.2589  145.7473  161.2358 C.3     1  UNL1        0.2527
     18 C         141.0097  145.2332  160.0433 C.3     1  UNL1        0.2526
     19 O         142.2273  144.3783  160.2350 O.3     1  UNL1       -0.4683
     20 C         140.5688  137.3172  163.7929 C.3     1  UNL1        0.0970
     21 C         139.3371  137.9686  164.3483 C.3     1  UNL1        0.1279
     22 C         140.0349  141.8313  166.5488 C.ar    1  UNL1        0.2264
     23 C         139.5437  143.1243  165.9685 C.ar    1  UNL1        0.0594
     24 C         138.8199  143.1298  164.6547 C.ar    1  UNL1        0.0270
     25 C         138.5873  141.8423  163.9212 C.ar    1  UNL1        0.1158
     26 N         137.8635  141.8477  162.6074 N.ar    1  UNL1       -0.2358
     27 C         137.6309  140.5602  161.8738 C.ar    1  UNL1        0.1595
     28 C         138.1221  139.2671  162.4541 C.ar    1  UNL1        0.2813
     29 O         137.8895  137.9795  161.7206 O.2     1  UNL1       -0.2652
     30 N         138.8459  139.2616  163.7679 N.ar    1  UNL1       -0.2766
     31 C         139.0785  140.5492  164.5015 C.ar    1  UNL1        0.1670
     32 N         139.8023  140.5438  165.8153 N.ar    1  UNL1       -0.1926
     33 C         140.5884  142.9700  168.8175 C.3     1  UNL1        0.2542
     34 O         140.7587  141.8258  167.8626 O.3     1  UNL1       -0.4561
@<TRIPOS>BOND
     1    33    34    1
     2    34    22    1
     3    22    23   ar
     4    23    24   ar
     5    24    25   ar
     6    25    26   ar
     7    26    27   ar
     8    27    28   ar
     9    28    29    2
    10    28    30   ar
    11    30    21    1
    12    21    20    1
    13    20     1    1
    14     1     2    1
    15     2     3    1
    16     3     4    1
    17     4     7    1
    18     7     9    1
    19     9    10    1
    20    10    11   ar
    21    11    12   ar
    22    12    13   ar
    23    13    14   ar
    24    14    15   ar
    25    13    16    1
    26    16    17    1
    27    17    18    1
    28    18    19    1
    29     4     5    1
    30     5     6    1
    31    30    31   ar
    32    31    32   ar
    33    32    22   ar
    34    31    25   ar
    35     6     1    1
    36    15    10   ar
    37    19    12    1
    38     7     8    1
