@<TRIPOS>MOLECULE
*****
 34 38 0 0 0
SMALL
GASTEIGER

@<TRIPOS>ATOM
      1 C         139.3226  136.8875  155.2814 C.3     1  UNL1        0.1230
      2 N         140.4719  137.0476  156.2319 N.am    1  UNL1       -0.2264
      3 C         141.7497  136.2622  156.2107 C.2     1  UNL1        0.2548
      4 O         142.1025  135.1788  155.2351 O.2     1  UNL1       -0.2723
      5 C         142.6127  136.7505  157.3362 C.3     1  UNL1        0.1972
      6 N         141.8683  137.8376  158.0531 N.ar    1  UNL1       -0.2580
      7 C         140.5452  138.0213  157.3706 C.ar    1  UNL1        0.2112
      8 N         139.5781  139.0513  157.8742 N.ar    1  UNL1       -0.1938
      9 C         139.9341  139.8978  159.0604 C.ar    1  UNL1        0.1884
     10 N         139.1897  140.9850  159.7773 N.ar    1  UNL1       -0.1942
     11 C         140.0526  141.4733  160.9028 C.ar    1  UNL1        0.2030
     12 N         141.3305  140.6878  160.8815 N.ar    1  UNL1       -0.2903
     13 C         141.2571  139.7142  159.7428 C.ar    1  UNL1        0.1554
     14 C         142.2243  138.6841  159.2392 C.ar    1  UNL1        0.2822
     15 O         143.5473  138.5005  159.9217 O.2     1  UNL1       -0.2652
     16 N         139.6999  142.5567  161.8784 N.pl3   1  UNL1       -0.2781
     17 C         138.8454  142.2433  163.0707 C.3     1  UNL1        0.0937
     18 C         138.4927  143.3268  164.0462 C.3     1  UNL1        0.0229
     19 C         138.9944  144.7236  163.8294 C.3     1  UNL1        0.0190
     20 C         139.8489  145.0371  162.6371 C.3     1  UNL1        0.0710
     21 N         140.3506  146.4339  162.4203 N.3     1  UNL1       -0.3208
     22 C         140.2016  143.9536  161.6616 C.3     1  UNL1        0.1089
     23 H         140.9112  146.4655  161.5687 H       1  UNL1        0.1189
     24 H         140.9238  146.7166  163.2153 H       1  UNL1        0.1189
     25 C         142.4798  140.8480  161.8320 C.3     1  UNL1        0.1364
     26 C         142.5678  139.9837  163.0547 C.ar    1  UNL1        0.0123
     27 C         141.4068  139.1188  163.4470 C.ar    1  UNL1        0.0279
     28 C         141.4948  138.2544  164.6698 C.ar    1  UNL1        0.1399
     29 F         140.3337  137.3896  165.0620 F       1  UNL1       -0.2042
     30 C         142.7438  138.2550  165.5003 C.ar    1  UNL1        0.0303
     31 C         143.9049  139.1200  165.1080 C.ar    1  UNL1        0.0123
     32 C         143.8169  139.9843  163.8853 C.ar    1  UNL1        0.0664
     33 C         144.9779  140.8492  163.4930 C.1     1  UNL1        0.1002
     34 N         146.1390  141.7141  163.1008 N.1     1  UNL1       -0.1908
@<TRIPOS>BOND
     1     1     2    1
     2     2     3   am
     3     3     4    2
     4     3     5    1
     5     5     6    1
     6     6     7   ar
     7     7     8   ar
     8     8     9   ar
     9     9    10   ar
    10    10    11   ar
    11    11    16    1
    12    16    17    1
    13    17    18    1
    14    18    19    1
    15    19    20    1
    16    20    21    1
    17    20    22    1
    18    11    12   ar
    19    12    25    1
    20    25    26    1
    21    26    27   ar
    22    27    28   ar
    23    28    29    1
    24    28    30   ar
    25    30    31   ar
    26    31    32   ar
    27    32    33    1
    28    33    34    3
    29    12    13   ar
    30    13    14   ar
    31    14    15    2
    32     7     2    1
    33    13     9   ar
    34    14     6   ar
    35    22    16    1
    36    32    26   ar
    37    21    23    1
    38    21    24    1
@<TRIPOS>MOLECULE
*****
 34 38 0 0 0
SMALL
GASTEIGER

@<TRIPOS>ATOM
      1 C         137.7153  144.5764  154.6821 C.3     1  UNL1        0.1230
      2 N         138.7101  144.9827  155.7286 N.am    1  UNL1       -0.2264
      3 C         139.5772  146.2062  155.6932 C.2     1  UNL1        0.2548
      4 O         139.6017  147.2382  154.6049 O.2     1  UNL1       -0.2723
      5 C         140.4155  146.2165  156.9370 C.3     1  UNL1        0.1972
      6 N         140.0665  144.9994  157.7413 N.ar    1  UNL1       -0.2580
      7 C         139.0126  144.2369  156.9945 C.ar    1  UNL1        0.2112
      8 N         138.4643  142.9619  157.5635 N.ar    1  UNL1       -0.1938
      9 C         138.9702  142.4494  158.8795 C.ar    1  UNL1        0.1884
     10 N         138.6212  141.2323  159.6837 N.ar    1  UNL1       -0.1942
     11 C         139.4594  141.2426  160.9276 C.ar    1  UNL1        0.2030
     12 N         140.3265  142.4661  160.8921 N.ar    1  UNL1       -0.2903
     13 C         140.0240  143.2119  159.6262 C.ar    1  UNL1        0.1554
     14 C         140.5723  144.4869  159.0572 C.ar    1  UNL1        0.2822
     15 O         141.6262  145.2495  159.8040 O.2     1  UNL1       -0.2652
     16 N         139.4349  140.2106  162.0160 N.pl3   1  UNL1       -0.2781
     17 C         138.4915  140.3622  163.1722 C.3     1  UNL1        0.0937
     18 C         138.4671  139.3302  164.2605 C.3     1  UNL1        0.0229
     19 C         139.3861  138.1467  164.1925 C.3     1  UNL1        0.0190
     20 C         140.3295  137.9950  163.0362 C.3     1  UNL1        0.0710
     21 N         141.2485  136.8115  162.9682 N.3     1  UNL1       -0.3208
     22 C         140.3539  139.0270  161.9479 C.3     1  UNL1        0.1089
     23 H         141.8150  136.8691  162.1220 H       1  UNL1        0.1189
     24 H         140.6971  135.9535  162.9505 H       1  UNL1        0.1189
     25 C         141.3212  142.8724  161.9386 C.3     1  UNL1        0.1364
     26 C         140.8892  143.0183  163.3676 C.ar    1  UNL1        0.0123
     27 C         139.8956  144.0762  163.7464 C.ar    1  UNL1        0.0279
     28 C         139.4635  144.2221  165.1755 C.ar    1  UNL1        0.1399
     29 F         138.4699  145.2799  165.5543 F       1  UNL1       -0.2042
     30 C         140.0251  143.3100  166.2256 C.ar    1  UNL1        0.0303
     31 C         141.0188  142.2521  165.8467 C.ar    1  UNL1        0.0123
     32 C         141.4508  142.1062  164.4177 C.ar    1  UNL1        0.0664
     33 C         142.4444  141.0484  164.0389 C.1     1  UNL1        0.1002
     34 N         143.4381  139.9904  163.6601 N.1     1  UNL1       -0.1908
@<TRIPOS>BOND
     1     1     2    1
     2     2     3   am
     3     3     4    2
     4     3     5    1
     5     5     6    1
     6     6     7   ar
     7     7     8   ar
     8     8     9   ar
     9     9    10   ar
    10    10    11   ar
    11    11    16    1
    12    16    17    1
    13    17    18    1
    14    18    19    1
    15    19    20    1
    16    20    21    1
    17    20    22    1
    18    11    12   ar
    19    12    25    1
    20    25    26    1
    21    26    27   ar
    22    27    28   ar
    23    28    29    1
    24    28    30   ar
    25    30    31   ar
    26    31    32   ar
    27    32    33    1
    28    33    34    3
    29    12    13   ar
    30    13    14   ar
    31    14    15    2
    32     7     2    1
    33    13     9   ar
    34    14     6   ar
    35    22    16    1
    36    32    26   ar
    37    21    23    1
    38    21    24    1
@<TRIPOS>MOLECULE
*****
 34 38 0 0 0
SMALL
GASTEIGER

@<TRIPOS>ATOM
      1 C         143.7251  136.0883  155.6981 C.3     1  UNL1        0.1230
      2 N         142.4317  136.6445  156.2156 N.am    1  UNL1       -0.2264
      3 C         141.0621  136.3196  155.6973 C.2     1  UNL1        0.2548
      4 O         140.7453  135.3815  154.5705 O.2     1  UNL1       -0.2723
      5 C         140.0647  137.0975  156.5036 C.3     1  UNL1        0.1972
      6 N         140.8180  137.9032  157.5203 N.ar    1  UNL1       -0.2580
      7 C         142.2808  137.6232  157.3422 C.ar    1  UNL1        0.2112
      8 N         143.2865  138.2956  158.2290 N.ar    1  UNL1       -0.1938
      9 C         142.8293  139.2480  159.2939 C.ar    1  UNL1        0.1884
     10 N         143.5825  140.0537  160.3105 N.ar    1  UNL1       -0.1942
     11 C         142.5853  140.8316  161.1169 C.ar    1  UNL1        0.2030
     12 N         141.2156  140.5067  160.5986 N.ar    1  UNL1       -0.2903
     13 C         141.3665  139.5280  159.4719 C.ar    1  UNL1        0.1554
     14 C         140.3608  138.8556  158.5851 C.ar    1  UNL1        0.2822
     15 O         138.8980  139.1356  158.7632 O.2     1  UNL1       -0.2652
     16 N         142.9019  141.7697  162.2437 N.pl3   1  UNL1       -0.2781
     17 C         142.8354  141.2873  163.6625 C.3     1  UNL1        0.0937
     18 C         143.1521  142.2255  164.7892 C.3     1  UNL1        0.0229
     19 C         143.5352  143.6460  164.4972 C.3     1  UNL1        0.0190
     20 C         143.6017  144.1285  163.0785 C.3     1  UNL1        0.0710
     21 N         143.9849  145.5490  162.7865 N.3     1  UNL1       -0.3208
     22 C         143.2851  143.1903  161.9517 C.3     1  UNL1        0.1089
     23 H         143.9791  145.7023  161.7781 H       1  UNL1        0.1189
     24 H         144.9192  145.7313  163.1528 H       1  UNL1        0.1189
     25 C         139.9222  141.0629  161.1161 C.3     1  UNL1        0.1364
     26 C         139.3768  140.5928  162.4319 C.ar    1  UNL1        0.0123
     27 C         139.6634  139.1996  162.9079 C.ar    1  UNL1        0.0279
     28 C         139.1179  138.7294  164.2238 C.ar    1  UNL1        0.1399
     29 F         139.4045  137.3362  164.6998 F       1  UNL1       -0.2042
     30 C         138.2859  139.6527  165.0637 C.ar    1  UNL1        0.0303
     31 C         137.9994  141.0460  164.5877 C.ar    1  UNL1        0.0123
     32 C         138.5448  141.5161  163.2718 C.ar    1  UNL1        0.0664
     33 C         138.2582  142.9094  162.7959 C.1     1  UNL1        0.1002
     34 N         137.9716  144.3027  162.3199 N.1     1  UNL1       -0.1908
@<TRIPOS>BOND
     1     1     2    1
     2     2     3   am
     3     3     4    2
     4     3     5    1
     5     5     6    1
     6     6     7   ar
     7     7     8   ar
     8     8     9   ar
     9     9    10   ar
    10    10    11   ar
    11    11    16    1
    12    16    17    1
    13    17    18    1
    14    18    19    1
    15    19    20    1
    16    20    21    1
    17    20    22    1
    18    11    12   ar
    19    12    25    1
    20    25    26    1
    21    26    27   ar
    22    27    28   ar
    23    28    29    1
    24    28    30   ar
    25    30    31   ar
    26    31    32   ar
    27    32    33    1
    28    33    34    3
    29    12    13   ar
    30    13    14   ar
    31    14    15    2
    32     7     2    1
    33    13     9   ar
    34    14     6   ar
    35    22    16    1
    36    32    26   ar
    37    21    23    1
    38    21    24    1
@<TRIPOS>MOLECULE
*****
 34 38 0 0 0
SMALL
GASTEIGER

@<TRIPOS>ATOM
      1 C         138.9487  138.0404  155.4684 C.3     1  UNL1        0.1230
      2 N         140.2171  137.8845  156.2537 N.am    1  UNL1       -0.2264
      3 C         141.5545  137.4913  155.6997 C.2     1  UNL1        0.2548
      4 O         141.8582  137.1851  154.2630 O.2     1  UNL1       -0.2723
      5 C         142.5348  137.4582  156.8345 C.3     1  UNL1        0.1972
      6 N         141.8034  137.8308  158.0899 N.ar    1  UNL1       -0.2580
      7 C         140.3710  138.0943  157.7309 C.ar    1  UNL1        0.2112
      8 N         139.3918  138.4913  158.7956 N.ar    1  UNL1       -0.1938
      9 C         139.8451  138.6247  160.2193 C.ar    1  UNL1        0.1884
     10 N         139.1137  138.9974  161.4748 N.ar    1  UNL1       -0.1942
     11 C         140.0939  138.9643  162.6096 C.ar    1  UNL1        0.2030
     12 N         141.4313  138.5711  162.0555 N.ar    1  UNL1       -0.2903
     13 C         141.2774  138.3612  160.5782 C.ar    1  UNL1        0.1554
     14 C         142.2566  137.9643  159.5135 C.ar    1  UNL1        0.2822
     15 O         143.6890  137.7008  159.8725 O.2     1  UNL1       -0.2652
     16 N         139.7903  139.2705  164.0463 N.pl3   1  UNL1       -0.2781
     17 C         140.5004  140.3951  164.7397 C.3     1  UNL1        0.0937
     18 C         140.1968  140.7013  166.1764 C.3     1  UNL1        0.0229
     19 C         139.1830  139.8828  166.9196 C.3     1  UNL1        0.0190
     20 C         138.4728  138.7582  166.2262 C.3     1  UNL1        0.0710
     21 N         137.4590  137.9397  166.9694 N.3     1  UNL1       -0.3208
     22 C         138.7765  138.4520  164.7895 C.3     1  UNL1        0.1089
     23 H         137.0788  137.2246  166.3494 H       1  UNL1        0.1189
     24 H         136.7047  138.5451  167.2932 H       1  UNL1        0.1189
     25 C         142.6997  138.4151  162.8408 C.3     1  UNL1        0.1364
     26 C         143.6608  139.5616  162.9486 C.ar    1  UNL1        0.0123
     27 C         143.8889  140.4623  161.7711 C.ar    1  UNL1        0.0279
     28 C         144.8501  141.6089  161.8788 C.ar    1  UNL1        0.1399
     29 F         145.0782  142.5096  160.7013 F       1  UNL1       -0.2042
     30 C         145.5831  141.8548  163.1642 C.ar    1  UNL1        0.0303
     31 C         145.3550  140.9540  164.3418 C.ar    1  UNL1        0.0123
     32 C         144.3939  139.8075  164.2340 C.ar    1  UNL1        0.0664
     33 C         144.1658  138.9068  165.4116 C.1     1  UNL1        0.1002
     34 N         143.9377  138.0062  166.5893 N.1     1  UNL1       -0.1908
@<TRIPOS>BOND
     1     1     2    1
     2     2     3   am
     3     3     4    2
     4     3     5    1
     5     5     6    1
     6     6     7   ar
     7     7     8   ar
     8     8     9   ar
     9     9    10   ar
    10    10    11   ar
    11    11    16    1
    12    16    17    1
    13    17    18    1
    14    18    19    1
    15    19    20    1
    16    20    21    1
    17    20    22    1
    18    11    12   ar
    19    12    25    1
    20    25    26    1
    21    26    27   ar
    22    27    28   ar
    23    28    29    1
    24    28    30   ar
    25    30    31   ar
    26    31    32   ar
    27    32    33    1
    28    33    34    3
    29    12    13   ar
    30    13    14   ar
    31    14    15    2
    32     7     2    1
    33    13     9   ar
    34    14     6   ar
    35    22    16    1
    36    32    26   ar
    37    21    23    1
    38    21    24    1
@<TRIPOS>MOLECULE
*****
 34 38 0 0 0
SMALL
GASTEIGER

@<TRIPOS>ATOM
      1 C         135.3670  141.4249  154.8444 C.3     1  UNL1        0.1230
      2 N         136.4609  142.1842  155.5350 N.am    1  UNL1       -0.2264
      3 C         137.0601  143.4804  155.0759 C.2     1  UNL1        0.2548
      4 O         136.6705  144.2450  153.8456 O.2     1  UNL1       -0.2723
      5 C         138.1172  143.8779  156.0631 C.3     1  UNL1        0.1972
      6 N         138.1714  142.8273  157.1324 N.ar    1  UNL1       -0.2580
      7 C         137.1477  141.7805  156.8060 C.ar    1  UNL1        0.2112
      8 N         136.9733  140.5950  157.7083 N.ar    1  UNL1       -0.1938
      9 C         137.8225  140.4563  158.9370 C.ar    1  UNL1        0.1884
     10 N         137.8767  139.4057  160.0062 N.ar    1  UNL1       -0.1942
     11 C         138.9337  139.8031  160.9934 C.ar    1  UNL1        0.2030
     12 N         139.5329  141.0994  160.5343 N.ar    1  UNL1       -0.2903
     13 C         138.8461  141.5030  159.2633 C.ar    1  UNL1        0.1554
     14 C         139.0205  142.6885  158.3610 C.ar    1  UNL1        0.2822
     15 O         140.0441  143.7353  158.6874 O.2     1  UNL1       -0.2652
     16 N         139.3233  139.0386  162.2238 N.pl3   1  UNL1       -0.2781
     17 C         140.4693  138.0720  162.1747 C.3     1  UNL1        0.0937
     18 C         140.8588  137.3075  163.4051 C.3     1  UNL1        0.0229
     19 C         140.1024  137.5097  164.6845 C.3     1  UNL1        0.0190
     20 C         138.9565  138.4763  164.7337 C.3     1  UNL1        0.0710
     21 N         138.2001  138.6785  166.0131 N.3     1  UNL1       -0.3208
     22 C         138.5670  139.2408  163.5033 C.3     1  UNL1        0.1089
     23 H         137.4603  139.3651  165.8658 H       1  UNL1        0.1189
     24 H         138.8372  139.0147  166.7352 H       1  UNL1        0.1189
     25 C         140.6268  141.8587  161.2249 C.3     1  UNL1        0.1364
     26 C         140.2911  142.8315  162.3161 C.ar    1  UNL1        0.0123
     27 C         138.9089  142.8579  162.8982 C.ar    1  UNL1        0.0279
     28 C         138.5731  143.8307  163.9895 C.ar    1  UNL1        0.1399
     29 F         137.1910  143.8571  164.5716 F       1  UNL1       -0.2042
     30 C         139.6196  144.7771  164.4987 C.ar    1  UNL1        0.0303
     31 C         141.0018  144.7506  163.9166 C.ar    1  UNL1        0.0123
     32 C         141.3375  143.7778  162.8253 C.ar    1  UNL1        0.0664
     33 C         142.7197  143.7514  162.2432 C.1     1  UNL1        0.1002
     34 N         144.1019  143.7251  161.6611 N.1     1  UNL1       -0.1908
@<TRIPOS>BOND
     1     1     2    1
     2     2     3   am
     3     3     4    2
     4     3     5    1
     5     5     6    1
     6     6     7   ar
     7     7     8   ar
     8     8     9   ar
     9     9    10   ar
    10    10    11   ar
    11    11    16    1
    12    16    17    1
    13    17    18    1
    14    18    19    1
    15    19    20    1
    16    20    21    1
    17    20    22    1
    18    11    12   ar
    19    12    25    1
    20    25    26    1
    21    26    27   ar
    22    27    28   ar
    23    28    29    1
    24    28    30   ar
    25    30    31   ar
    26    31    32   ar
    27    32    33    1
    28    33    34    3
    29    12    13   ar
    30    13    14   ar
    31    14    15    2
    32     7     2    1
    33    13     9   ar
    34    14     6   ar
    35    22    16    1
    36    32    26   ar
    37    21    23    1
    38    21    24    1
@<TRIPOS>MOLECULE
*****
 34 38 0 0 0
SMALL
GASTEIGER

@<TRIPOS>ATOM
      1 C         138.0012  144.4438  154.4864 C.3     1  UNL1        0.1230
      2 N         138.9791  144.8527  155.5477 N.am    1  UNL1       -0.2264
      3 C         139.8726  146.0569  155.5065 C.2     1  UNL1        0.2548
      4 O         139.9449  147.0636  154.3969 O.2     1  UNL1       -0.2723
      5 C         140.6810  146.0777  156.7699 C.3     1  UNL1        0.1972
      6 N         140.2872  144.8864  157.5918 N.ar    1  UNL1       -0.2580
      7 C         139.2354  144.1293  156.8365 C.ar    1  UNL1        0.2112
      8 N         138.6469  142.8790  157.4198 N.ar    1  UNL1       -0.1938
      9 C         139.1102  142.3858  158.7586 C.ar    1  UNL1        0.1884
     10 N         138.7164  141.1944  159.5805 N.ar    1  UNL1       -0.1942
     11 C         139.5247  141.2151  160.8438 C.ar    1  UNL1        0.2030
     12 N         140.4182  142.4194  160.8026 N.ar    1  UNL1       -0.2903
     13 C         140.1619  143.1428  159.5138 C.ar    1  UNL1        0.1554
     14 C         140.7505  144.3931  158.9305 C.ar    1  UNL1        0.2822
     15 O         141.8023  145.1502  159.6859 O.2     1  UNL1       -0.2652
     16 N         139.4524  140.2085  161.9536 N.pl3   1  UNL1       -0.2781
     17 C         138.4596  140.3862  163.0638 C.3     1  UNL1        0.0937
     18 C         138.3874  139.3795  164.1735 C.3     1  UNL1        0.0229
     19 C         139.3080  138.1952  164.1729 C.3     1  UNL1        0.0190
     20 C         140.3008  138.0176  163.0627 C.3     1  UNL1        0.0710
     21 N         141.2214  136.8333  163.0621 N.3     1  UNL1       -0.3208
     22 C         140.3730  139.0242  161.9530 C.3     1  UNL1        0.1089
     23 H         141.8243  136.8718  162.2402 H       1  UNL1        0.1189
     24 H         140.6711  135.9748  163.0401 H       1  UNL1        0.1189
     25 C         141.3962  142.8284  161.8639 C.3     1  UNL1        0.1364
     26 C         140.9473  142.9524  163.2898 C.ar    1  UNL1        0.0123
     27 C         141.3996  141.9487  164.3084 C.ar    1  UNL1        0.0279
     28 C         140.9508  142.0727  165.7344 C.ar    1  UNL1        0.1399
     29 F         141.4031  141.0690  166.7531 F       1  UNL1       -0.2042
     30 C         140.0496  143.2006  166.1415 C.ar    1  UNL1        0.0303
     31 C         139.5973  144.2044  165.1228 C.ar    1  UNL1        0.0123
     32 C         140.0461  144.0803  163.6969 C.ar    1  UNL1        0.0664
     33 C         139.5938  145.0841  162.6782 C.1     1  UNL1        0.1002
     34 N         139.1415  146.0879  161.6595 N.1     1  UNL1       -0.1908
@<TRIPOS>BOND
     1     1     2    1
     2     2     3   am
     3     3     4    2
     4     3     5    1
     5     5     6    1
     6     6     7   ar
     7     7     8   ar
     8     8     9   ar
     9     9    10   ar
    10    10    11   ar
    11    11    16    1
    12    16    17    1
    13    17    18    1
    14    18    19    1
    15    19    20    1
    16    20    21    1
    17    20    22    1
    18    11    12   ar
    19    12    25    1
    20    25    26    1
    21    26    27   ar
    22    27    28   ar
    23    28    29    1
    24    28    30   ar
    25    30    31   ar
    26    31    32   ar
    27    32    33    1
    28    33    34    3
    29    12    13   ar
    30    13    14   ar
    31    14    15    2
    32     7     2    1
    33    13     9   ar
    34    14     6   ar
    35    22    16    1
    36    32    26   ar
    37    21    23    1
    38    21    24    1
@<TRIPOS>MOLECULE
*****
 34 38 0 0 0
SMALL
GASTEIGER

@<TRIPOS>ATOM
      1 C         139.1737  146.7599  155.1198 C.3     1  UNL1        0.1230
      2 N         138.8421  145.4297  155.7284 N.am    1  UNL1       -0.2264
      3 C         137.8201  144.4571  155.2188 C.2     1  UNL1        0.2548
      4 O         136.9503  144.6441  154.0111 O.2     1  UNL1       -0.2723
      5 C         137.8205  143.2648  156.1290 C.3     1  UNL1        0.1972
      6 N         138.8428  143.5004  157.2011 N.ar    1  UNL1       -0.2580
      7 C         139.4741  144.8384  156.9535 C.ar    1  UNL1        0.2112
      8 N         140.5430  145.3454  157.8756 N.ar    1  UNL1       -0.1938
      9 C         140.9806  144.5145  159.0453 C.ar    1  UNL1        0.1884
     10 N         142.0029  144.7501  160.1174 N.ar    1  UNL1       -0.1942
     11 C         142.0034  143.5579  161.0276 C.ar    1  UNL1        0.2030
     12 N         140.9813  142.5853  160.5179 N.ar    1  UNL1       -0.2903
     13 C         140.3493  143.1766  159.2928 C.ar    1  UNL1        0.1554
     14 C         139.2804  142.6695  158.3707 C.ar    1  UNL1        0.2822
     15 O         138.6490  141.3316  158.6183 O.2     1  UNL1       -0.2652
     16 N         142.8732  143.3709  162.2353 N.pl3   1  UNL1       -0.2781
     17 C         142.4365  143.9107  163.5649 C.3     1  UNL1        0.0937
     18 C         143.3063  143.7237  164.7726 C.3     1  UNL1        0.0229
     19 C         144.6127  142.9967  164.6506 C.3     1  UNL1        0.0190
     20 C         145.0494  142.4569  163.3210 C.3     1  UNL1        0.0710
     21 N         146.3558  141.7300  163.1991 N.3     1  UNL1       -0.3208
     22 C         144.1796  142.6439  162.1134 C.3     1  UNL1        0.1089
     23 H         146.4915  141.4346  162.2323 H       1  UNL1        0.1189
     24 H         146.3471  140.9108  163.8068 H       1  UNL1        0.1189
     25 C         140.6497  141.2551  161.1266 C.3     1  UNL1        0.1364
     26 C         139.7858  141.1849  162.3508 C.ar    1  UNL1        0.0123
     27 C         139.0769  142.4130  162.8399 C.ar    1  UNL1        0.0279
     28 C         138.2130  142.3429  164.0642 C.ar    1  UNL1        0.1399
     29 F         137.5041  143.5709  164.5532 F       1  UNL1       -0.2042
     30 C         138.0581  141.0446  164.7994 C.ar    1  UNL1        0.0303
     31 C         138.7671  139.8165  164.3103 C.ar    1  UNL1        0.0123
     32 C         139.6309  139.8866  163.0860 C.ar    1  UNL1        0.0664
     33 C         140.3398  138.6586  162.5970 C.1     1  UNL1        0.1002
     34 N         141.0487  137.4304  162.1079 N.1     1  UNL1       -0.1908
@<TRIPOS>BOND
     1     1     2    1
     2     2     3   am
     3     3     4    2
     4     3     5    1
     5     5     6    1
     6     6     7   ar
     7     7     8   ar
     8     8     9   ar
     9     9    10   ar
    10    10    11   ar
    11    11    16    1
    12    16    17    1
    13    17    18    1
    14    18    19    1
    15    19    20    1
    16    20    21    1
    17    20    22    1
    18    11    12   ar
    19    12    25    1
    20    25    26    1
    21    26    27   ar
    22    27    28   ar
    23    28    29    1
    24    28    30   ar
    25    30    31   ar
    26    31    32   ar
    27    32    33    1
    28    33    34    3
    29    12    13   ar
    30    13    14   ar
    31    14    15    2
    32     7     2    1
    33    13     9   ar
    34    14     6   ar
    35    22    16    1
    36    32    26   ar
    37    21    23    1
    38    21    24    1
@<TRIPOS>MOLECULE
*****
 34 38 0 0 0
SMALL
GASTEIGER

@<TRIPOS>ATOM
      1 C         143.0199  143.0416  170.5604 C.3     1  UNL1        0.1230
      2 N         141.8754  142.2632  169.9821 N.am    1  UNL1       -0.2264
      3 C         140.5908  141.9326  170.6824 C.2     1  UNL1        0.2548
      4 O         140.2251  142.3223  172.0840 O.2     1  UNL1       -0.2723
      5 C         139.7361  141.1438  169.7351 C.3     1  UNL1        0.1972
      6 N         140.4925  140.9870  168.4493 N.ar    1  UNL1       -0.2580
      7 C         141.8146  141.6788  168.6020 C.ar    1  UNL1        0.2112
      8 N         142.7925  141.6872  167.4645 N.ar    1  UNL1       -0.1938
      9 C         142.4480  141.0038  166.1744 C.ar    1  UNL1        0.1884
     10 N         143.2044  140.8469  164.8886 N.ar    1  UNL1       -0.1942
     11 C         142.3498  140.0582  163.9413 C.ar    1  UNL1        0.2030
     12 N         141.0652  139.7276  164.6417 N.ar    1  UNL1       -0.2903
     13 C         141.1260  140.3120  166.0218 C.ar    1  UNL1        0.1554
     14 C         140.1481  140.3036  167.1592 C.ar    1  UNL1        0.2822
     15 O         138.8260  139.6118  167.0065 O.2     1  UNL1       -0.2652
     16 N         142.7155  139.6684  162.5397 N.pl3   1  UNL1       -0.2781
     17 C         143.2529  138.2965  162.2587 C.3     1  UNL1        0.0937
     18 C         143.6185  137.9068  160.8571 C.3     1  UNL1        0.0229
     19 C         143.4468  138.8891  159.7366 C.3     1  UNL1        0.0190
     20 C         142.9094  140.2610  160.0175 C.3     1  UNL1        0.0710
     21 N         142.7376  141.2433  158.8970 N.3     1  UNL1       -0.3208
     22 C         142.5437  140.6507  161.4191 C.3     1  UNL1        0.1089
     23 H         142.3644  142.1180  159.2658 H       1  UNL1        0.1189
     24 H         142.0908  140.8619  158.2067 H       1  UNL1        0.1189
     25 C         139.9207  138.9492  164.0634 C.3     1  UNL1        0.1364
     26 C         139.3988  139.2856  162.6980 C.ar    1  UNL1        0.0123
     27 C         139.7031  138.3868  161.5364 C.ar    1  UNL1        0.0279
     28 C         139.1812  138.7231  160.1708 C.ar    1  UNL1        0.1399
     29 F         139.4854  137.8243  159.0092 F       1  UNL1       -0.2042
     30 C         138.3550  139.9584  159.9671 C.ar    1  UNL1        0.0303
     31 C         138.0507  140.8573  161.1288 C.ar    1  UNL1        0.0123
     32 C         138.5727  140.5209  162.4942 C.ar    1  UNL1        0.0664
     33 C         138.2684  141.4197  163.6558 C.1     1  UNL1        0.1002
     34 N         137.9641  142.3186  164.8175 N.1     1  UNL1       -0.1908
@<TRIPOS>BOND
     1     1     2    1
     2     2     3   am
     3     3     4    2
     4     3     5    1
     5     5     6    1
     6     6     7   ar
     7     7     8   ar
     8     8     9   ar
     9     9    10   ar
    10    10    11   ar
    11    11    16    1
    12    16    17    1
    13    17    18    1
    14    18    19    1
    15    19    20    1
    16    20    21    1
    17    20    22    1
    18    11    12   ar
    19    12    25    1
    20    25    26    1
    21    26    27   ar
    22    27    28   ar
    23    28    29    1
    24    28    30   ar
    25    30    31   ar
    26    31    32   ar
    27    32    33    1
    28    33    34    3
    29    12    13   ar
    30    13    14   ar
    31    14    15    2
    32     7     2    1
    33    13     9   ar
    34    14     6   ar
    35    22    16    1
    36    32    26   ar
    37    21    23    1
    38    21    24    1
@<TRIPOS>MOLECULE
*****
 34 38 0 0 0
SMALL
GASTEIGER

@<TRIPOS>ATOM
      1 C         143.9942  142.4304  169.8287 C.3     1  UNL1        0.1230
      2 N         142.7092  142.4992  169.0580 N.am    1  UNL1       -0.2264
      3 C         141.3423  142.7076  169.6396 C.2     1  UNL1        0.2548
      4 O         141.0205  142.8840  171.0940 O.2     1  UNL1       -0.2723
      5 C         140.3538  142.7088  168.5114 C.3     1  UNL1        0.1972
      6 N         141.1096  142.5010  167.2326 N.ar    1  UNL1       -0.2580
      7 C         142.5653  142.3715  167.5704 C.ar    1  UNL1        0.2112
      8 N         143.5719  142.1539  166.4797 N.ar    1  UNL1       -0.1938
      9 C         143.1226  142.0660  165.0512 C.ar    1  UNL1        0.1884
     10 N         143.8785  141.8582  163.7724 N.ar    1  UNL1       -0.1942
     11 C         142.8900  141.8593  162.6442 C.ar    1  UNL1        0.2030
     12 N         141.5231  142.0678  163.2259 N.ar    1  UNL1       -0.2903
     13 C         141.6670  142.1955  164.7135 C.ar    1  UNL1        0.1554
     14 C         140.6604  142.4131  165.8041 C.ar    1  UNL1        0.2822
     15 O         139.2047  142.5426  165.4663 O.2     1  UNL1       -0.2652
     16 N         143.2117  141.6829  161.1897 N.pl3   1  UNL1       -0.2781
     17 C         143.5986  142.8697  160.3579 C.3     1  UNL1        0.0937
     18 C         143.9203  142.6932  158.9035 C.3     1  UNL1        0.0229
     19 C         143.8551  141.3300  158.2809 C.3     1  UNL1        0.0190
     20 C         143.4683  140.1433  159.1128 C.3     1  UNL1        0.0710
     21 N         143.4031  138.7802  158.4902 N.3     1  UNL1       -0.3208
     22 C         143.1466  140.3198  160.5672 C.3     1  UNL1        0.1089
     23 H         143.1261  138.0972  159.1954 H       1  UNL1        0.1189
     24 H         144.3199  138.5320  158.1183 H       1  UNL1        0.1189
     25 C         140.2381  142.1365  162.4552 C.3     1  UNL1        0.1364
     26 C         139.4313  140.8923  162.2298 C.ar    1  UNL1        0.0123
     27 C         139.4814  139.7747  163.2289 C.ar    1  UNL1        0.0279
     28 C         138.6746  138.5303  163.0035 C.ar    1  UNL1        0.1399
     29 F         138.7247  137.4127  164.0027 F       1  UNL1       -0.2042
     30 C         137.8177  138.4037  161.7789 C.ar    1  UNL1        0.0303
     31 C         137.7676  139.5214  160.7797 C.ar    1  UNL1        0.0123
     32 C         138.5744  140.7657  161.0052 C.ar    1  UNL1        0.0664
     33 C         138.5242  141.8833  160.0060 C.1     1  UNL1        0.1002
     34 N         138.4740  143.0010  159.0068 N.1     1  UNL1       -0.1908
@<TRIPOS>BOND
     1     1     2    1
     2     2     3   am
     3     3     4    2
     4     3     5    1
     5     5     6    1
     6     6     7   ar
     7     7     8   ar
     8     8     9   ar
     9     9    10   ar
    10    10    11   ar
    11    11    16    1
    12    16    17    1
    13    17    18    1
    14    18    19    1
    15    19    20    1
    16    20    21    1
    17    20    22    1
    18    11    12   ar
    19    12    25    1
    20    25    26    1
    21    26    27   ar
    22    27    28   ar
    23    28    29    1
    24    28    30   ar
    25    30    31   ar
    26    31    32   ar
    27    32    33    1
    28    33    34    3
    29    12    13   ar
    30    13    14   ar
    31    14    15    2
    32     7     2    1
    33    13     9   ar
    34    14     6   ar
    35    22    16    1
    36    32    26   ar
    37    21    23    1
    38    21    24    1
