@<TRIPOS>MOLECULE
*****
 39 44 0 0 0
SMALL
GASTEIGER

@<TRIPOS>ATOM
      1 C         141.0981  140.9422  159.5961 C.ar    1  UNL1       -0.0088
      2 C         140.9066  141.6933  160.8803 C.ar    1  UNL1       -0.0002
      3 C         141.0055  140.9729  162.1924 C.ar    1  UNL1        0.0351
      4 C         141.2959  139.5015  162.2201 C.ar    1  UNL1       -0.0133
      5 C         141.4874  138.7505  160.9358 C.ar    1  UNL1        0.0104
      6 C         141.3885  139.4708  159.6238 C.ar    1  UNL1        0.0436
      7 C         141.3948  138.7812  163.5321 C.3     1  UNL1        0.0545
      8 C         141.5828  137.6654  164.5169 C.3     1  UNL1        0.0103
      9 C         141.6516  137.6427  162.5899 C.3     1  UNL1        0.0103
     10 C         141.2032  139.5322  164.8163 C.2     1  UNL1        0.0648
     11 N         141.2421  139.0944  166.2505 N.2     1  UNL1       -0.2496
     12 C         140.9758  140.2952  167.1091 C.2     1  UNL1        0.0781
     13 C         140.8922  140.4666  168.5969 C.2     1  UNL1        0.0287
     14 C         140.6052  141.8179  169.1812 C.2     1  UNL1        0.0660
     15 C         140.4017  142.9979  168.2777 C.2     1  UNL1       -0.0110
     16 C         140.4853  142.8265  166.7899 C.3     1  UNL1        0.0547
     17 C         140.7723  141.4751  166.2056 C.2     1  UNL1        0.0041
     18 C         140.9129  141.0036  164.7886 C.2     1  UNL1        0.0506
     19 C         140.8140  141.7239  163.4766 C.2     1  UNL1        0.1961
     20 O         140.5236  143.1953  163.4488 O.2     1  UNL1       -0.2866
     21 N         141.5800  138.7198  158.3396 N.pl3   1  UNL1       -0.3049
     22 C         142.9270  138.6929  157.6801 C.3     1  UNL1        0.1081
     23 C         143.1185  137.9419  156.3959 C.3     1  UNL1        0.0939
     24 N         141.9630  137.2178  155.7711 N.3     1  UNL1       -0.2678
     25 C         140.6160  137.2446  156.4305 C.3     1  UNL1        0.0939
     26 C         140.4245  137.9957  157.7148 C.3     1  UNL1        0.1081
     27 C         142.1545  136.4667  154.4868 C.3     1  UNL1        0.0995
     28 C         141.8952  134.9902  154.4356 C.3     1  UNL1        0.1078
     29 O         140.7207  135.4885  153.6468 O.3     1  UNL1       -0.3852
     30 C         143.1598  135.0047  155.2423 C.3     1  UNL1        0.0604
     31 C         143.7571  133.7157  155.7237 C.3     1  UNL1        0.1446
     32 O         143.0899  132.4123  155.3985 O.3     1  UNL1       -0.3536
     33 C         141.8253  132.3978  154.5919 C.3     1  UNL1        0.1446
     34 C         141.2279  133.6867  154.1104 C.3     1  UNL1        0.0604
     35 H         140.7543  136.4564  153.5933 H       1  UNL1        0.2103
     36 C         139.6731  141.7853  157.5939 C.3     1  UNL1        0.0051
     37 C         140.9992  141.6626  158.2841 C.3     1  UNL1        0.0276
     38 C         140.5217  141.9894  170.6691 C.1     1  UNL1        0.1001
     39 N         140.4382  142.1608  172.1569 N.1     1  UNL1       -0.1908
@<TRIPOS>BOND
     1    36    37    1
     2    37     1    1
     3     1     2   ar
     4     2     3   ar
     5     3     4   ar
     6     4     5   ar
     7     5     6   ar
     8     6    21    1
     9    21    22    1
    10    22    23    1
    11    23    24    1
    12    24    27    1
    13    27    28    1
    14    28    29    1
    15    28    30    1
    16    30    31    1
    17    31    32    1
    18    32    33    1
    19    33    34    1
    20    24    25    1
    21    25    26    1
    22     4     7    1
    23     7     8    1
    24     7     9    1
    25     7    10    1
    26    10    11    2
    27    11    12    1
    28    12    13    2
    29    13    14    1
    30    14    38    1
    31    38    39    3
    32    14    15    2
    33    15    16    1
    34    16    17    1
    35    17    18    2
    36    18    19    1
    37    19    20    2
    38     6     1   ar
    39    26    21    1
    40    18    10    1
    41    19     3    1
    42    34    28    1
    43    17    12    1
    44    29    35    1
@<TRIPOS>MOLECULE
*****
 39 44 0 0 0
SMALL
GASTEIGER

@<TRIPOS>ATOM
      1 C         142.3925  143.1606  159.8259 C.ar    1  UNL1       -0.0088
      2 C         142.7529  142.5532  161.1492 C.ar    1  UNL1       -0.0002
      3 C         141.9367  142.8703  162.3672 C.ar    1  UNL1        0.0351
      4 C         140.7602  143.7949  162.2617 C.ar    1  UNL1       -0.0133
      5 C         140.3999  144.4023  160.9383 C.ar    1  UNL1        0.0104
      6 C         141.2161  144.0852  159.7204 C.ar    1  UNL1        0.0436
      7 C         139.9440  144.1120  163.4796 C.3     1  UNL1        0.0545
      8 C         138.8736  144.7125  164.3420 C.3     1  UNL1        0.0103
      9 C         139.2120  144.9279  162.4558 C.3     1  UNL1        0.0103
     10 C         140.3043  143.5046  164.8029 C.2     1  UNL1        0.0648
     11 N         139.6905  143.6308  166.1657 N.2     1  UNL1       -0.2496
     12 C         140.4876  142.7844  167.1134 C.2     1  UNL1        0.0781
     13 C         140.3488  142.5211  168.5836 C.2     1  UNL1        0.0287
     14 C         141.3165  141.6083  169.2766 C.2     1  UNL1        0.0660
     15 C         142.4230  140.9588  168.4995 C.2     1  UNL1       -0.0110
     16 C         142.5618  141.2221  167.0294 C.3     1  UNL1        0.0547
     17 C         141.5941  142.1349  166.3364 C.2     1  UNL1        0.0041
     18 C         141.4808  142.5800  164.9084 C.2     1  UNL1        0.0506
     19 C         142.2970  142.2629  163.6905 C.2     1  UNL1        0.1961
     20 O         143.4735  141.3383  163.7959 O.2     1  UNL1       -0.2866
     21 N         140.8558  144.6926  158.3971 N.pl3   1  UNL1       -0.3049
     22 C         141.6438  145.8526  157.8649 C.3     1  UNL1        0.1081
     23 C         141.2835  146.4600  156.5416 C.3     1  UNL1        0.0939
     24 N         140.1352  145.9074  155.7504 N.3     1  UNL1       -0.2678
     25 C         139.3472  144.7473  156.2827 C.3     1  UNL1        0.0939
     26 C         139.7075  144.1399  157.6060 C.3     1  UNL1        0.1081
     27 C         139.7749  146.5148  154.4271 C.3     1  UNL1        0.0995
     28 C         139.9785  147.9827  154.1953 C.3     1  UNL1        0.1078
     29 O         140.9259  147.4241  153.1753 O.3     1  UNL1       -0.3852
     30 C         138.9605  148.0316  155.2959 C.3     1  UNL1        0.0604
     31 C         138.4751  149.3544  155.8103 C.3     1  UNL1        0.1446
     32 O         139.0078  150.6282  155.2242 O.3     1  UNL1       -0.3536
     33 C         140.0258  150.5793  154.1237 C.3     1  UNL1        0.1446
     34 C         140.5113  149.2566  153.6092 C.3     1  UNL1        0.0604
     35 H         140.9021  146.4549  153.2086 H       1  UNL1        0.2103
     36 C         144.6640  142.5074  158.7470 C.3     1  UNL1        0.0051
     37 C         143.2088  142.8435  158.6080 C.3     1  UNL1        0.0276
     38 C         141.1777  141.3449  170.7469 C.1     1  UNL1        0.1001
     39 N         141.0389  141.0816  172.2170 N.1     1  UNL1       -0.1908
@<TRIPOS>BOND
     1    36    37    1
     2    37     1    1
     3     1     2   ar
     4     2     3   ar
     5     3     4   ar
     6     4     5   ar
     7     5     6   ar
     8     6    21    1
     9    21    22    1
    10    22    23    1
    11    23    24    1
    12    24    27    1
    13    27    28    1
    14    28    29    1
    15    28    30    1
    16    30    31    1
    17    31    32    1
    18    32    33    1
    19    33    34    1
    20    24    25    1
    21    25    26    1
    22     4     7    1
    23     7     8    1
    24     7     9    1
    25     7    10    1
    26    10    11    2
    27    11    12    1
    28    12    13    2
    29    13    14    1
    30    14    38    1
    31    38    39    3
    32    14    15    2
    33    15    16    1
    34    16    17    1
    35    17    18    2
    36    18    19    1
    37    19    20    2
    38     6     1   ar
    39    26    21    1
    40    18    10    1
    41    19     3    1
    42    34    28    1
    43    17    12    1
    44    29    35    1
@<TRIPOS>MOLECULE
*****
 39 44 0 0 0
SMALL
GASTEIGER

@<TRIPOS>ATOM
      1 C         142.3871  143.0194  159.5958 C.ar    1  UNL1       -0.0088
      2 C         141.6798  143.2911  160.8904 C.ar    1  UNL1       -0.0002
      3 C         142.1837  142.6781  162.1634 C.ar    1  UNL1        0.0351
      4 C         143.3949  141.7935  162.1417 C.ar    1  UNL1       -0.0133
      5 C         144.1022  141.5219  160.8471 C.ar    1  UNL1        0.0104
      6 C         143.5983  142.1348  159.5742 C.ar    1  UNL1        0.0436
      7 C         143.8988  141.1806  163.4146 C.3     1  UNL1        0.0545
      8 C         144.7511  140.3762  164.3509 C.3     1  UNL1        0.0103
      9 C         144.9021  140.6296  162.4452 C.3     1  UNL1        0.0103
     10 C         143.1915  141.4522  164.7092 C.2     1  UNL1        0.0648
     11 N         143.4541  140.9915  166.1123 N.2     1  UNL1       -0.2496
     12 C         142.4052  141.5913  167.0012 C.2     1  UNL1        0.0781
     13 C         142.1618  141.4878  168.4776 C.2     1  UNL1        0.0287
     14 C         141.0076  142.2158  169.1003 C.2     1  UNL1        0.0660
     15 C         140.0968  143.0473  168.2465 C.2     1  UNL1       -0.0110
     16 C         140.3401  143.1508  166.7700 C.3     1  UNL1        0.0547
     17 C         141.4944  142.4228  166.1474 C.2     1  UNL1        0.0041
     18 C         141.9803  142.3368  164.7309 C.2     1  UNL1        0.0506
     19 C         141.4764  142.9498  163.4580 C.2     1  UNL1        0.1961
     20 O         140.2652  143.8345  163.4796 O.2     1  UNL1       -0.2866
     21 N         144.3056  141.8631  158.2795 N.pl3   1  UNL1       -0.3049
     22 C         145.5049  142.6777  157.8949 C.3     1  UNL1        0.1081
     23 C         146.2122  142.4061  156.6003 C.3     1  UNL1        0.0939
     24 N         145.7201  141.3198  155.6904 N.3     1  UNL1       -0.2678
     25 C         144.5208  140.5053  156.0751 C.3     1  UNL1        0.0939
     26 C         143.8135  140.7769  157.3697 C.3     1  UNL1        0.1081
     27 C         146.4274  141.0482  154.3958 C.3     1  UNL1        0.0995
     28 C         147.2926  142.1061  153.7775 C.3     1  UNL1        0.1078
     29 O         145.9606  142.4918  153.2057 O.3     1  UNL1       -0.3852
     30 C         148.3241  141.3529  154.5641 C.3     1  UNL1        0.0604
     31 C         149.7582  141.7916  154.5338 C.3     1  UNL1        0.1446
     32 O         150.1608  142.9835  153.7168 O.3     1  UNL1       -0.3536
     33 C         149.1292  143.7366  152.9302 C.3     1  UNL1        0.1446
     34 C         147.6951  143.2980  152.9605 C.3     1  UNL1        0.0604
     35 H         145.2811  141.8786  153.5267 H       1  UNL1        0.2103
     36 C         142.1858  145.0680  158.0105 C.3     1  UNL1        0.0051
     37 C         141.8832  143.6324  158.3229 C.3     1  UNL1        0.0276
     38 C         140.7642  142.1123  170.5769 C.1     1  UNL1        0.1001
     39 N         140.5208  142.0088  172.0533 N.1     1  UNL1       -0.1908
@<TRIPOS>BOND
     1    36    37    1
     2    37     1    1
     3     1     2   ar
     4     2     3   ar
     5     3     4   ar
     6     4     5   ar
     7     5     6   ar
     8     6    21    1
     9    21    22    1
    10    22    23    1
    11    23    24    1
    12    24    27    1
    13    27    28    1
    14    28    29    1
    15    28    30    1
    16    30    31    1
    17    31    32    1
    18    32    33    1
    19    33    34    1
    20    24    25    1
    21    25    26    1
    22     4     7    1
    23     7     8    1
    24     7     9    1
    25     7    10    1
    26    10    11    2
    27    11    12    1
    28    12    13    2
    29    13    14    1
    30    14    38    1
    31    38    39    3
    32    14    15    2
    33    15    16    1
    34    16    17    1
    35    17    18    2
    36    18    19    1
    37    19    20    2
    38     6     1   ar
    39    26    21    1
    40    18    10    1
    41    19     3    1
    42    34    28    1
    43    17    12    1
    44    29    35    1
@<TRIPOS>MOLECULE
*****
 39 44 0 0 0
SMALL
GASTEIGER

@<TRIPOS>ATOM
      1 C         142.1964  140.1796  159.3991 C.ar    1  UNL1       -0.0088
      2 C         141.6543  139.8501  160.7584 C.ar    1  UNL1       -0.0002
      3 C         142.0392  140.6870  161.9423 C.ar    1  UNL1        0.0351
      4 C         142.9661  141.8532  161.7670 C.ar    1  UNL1       -0.0133
      5 C         143.5082  142.1826  160.4077 C.ar    1  UNL1        0.0104
      6 C         143.1233  141.3458  159.2238 C.ar    1  UNL1        0.0436
      7 C         143.3509  142.6900  162.9509 C.3     1  UNL1        0.0545
      8 C         144.0026  143.7717  163.7604 C.3     1  UNL1        0.0103
      9 C         144.1193  143.3951  161.8728 C.3     1  UNL1        0.0103
     10 C         142.8088  142.3606  164.3102 C.2     1  UNL1        0.0648
     11 N         143.0089  142.9995  165.6524 N.2     1  UNL1       -0.2496
     12 C         142.2057  142.2282  166.6574 C.2     1  UNL1        0.0781
     13 C         142.0185  142.3976  168.1359 C.2     1  UNL1        0.0287
     14 C         141.1348  141.4514  168.8933 C.2     1  UNL1        0.0660
     15 C         140.4383  140.3357  168.1721 C.2     1  UNL1       -0.0110
     16 C         140.6254  140.1663  166.6936 C.3     1  UNL1        0.0547
     17 C         141.5091  141.1125  165.9362 C.2     1  UNL1        0.0041
     18 C         141.8819  141.1943  164.4855 C.2     1  UNL1        0.0506
     19 C         141.4971  140.3576  163.3016 C.2     1  UNL1        0.1961
     20 O         140.5701  139.1913  163.4770 O.2     1  UNL1       -0.2866
     21 N         143.6654  141.6752  157.8645 N.pl3   1  UNL1       -0.3049
     22 C         142.9091  142.6025  156.9599 C.3     1  UNL1        0.1081
     23 C         143.4512  142.9319  155.6007 C.3     1  UNL1        0.0939
     24 N         144.7495  142.3341  155.1460 N.3     1  UNL1       -0.2678
     25 C         145.5059  141.4069  156.0505 C.3     1  UNL1        0.0939
     26 C         144.9638  141.0774  157.4098 C.3     1  UNL1        0.1081
     27 C         145.2916  142.6635  153.7867 C.3     1  UNL1        0.0995
     28 C         146.7447  142.9957  153.6190 C.3     1  UNL1        0.1078
     29 O         146.3121  144.1459  154.4792 O.3     1  UNL1       -0.3852
     30 C         146.6727  141.7301  152.8170 C.3     1  UNL1        0.0604
     31 C         147.9036  141.1963  152.1462 C.3     1  UNL1        0.1446
     32 O         149.2064  141.9280  152.2773 O.3     1  UNL1       -0.3536
     33 C         149.2784  143.1936  153.0793 C.3     1  UNL1        0.1446
     34 C         148.0476  143.7275  153.7502 C.3     1  UNL1        0.0604
     35 H         145.3658  144.0645  154.6759 H       1  UNL1        0.2103
     36 C         142.5888  138.1019  157.8893 C.3     1  UNL1        0.0051
     37 C         141.8115  139.3428  158.2152 C.3     1  UNL1        0.0276
     38 C         140.9476  141.6208  170.3720 C.1     1  UNL1        0.1001
     39 N         140.7604  141.7902  171.8505 N.1     1  UNL1       -0.1908
@<TRIPOS>BOND
     1    36    37    1
     2    37     1    1
     3     1     2   ar
     4     2     3   ar
     5     3     4   ar
     6     4     5   ar
     7     5     6   ar
     8     6    21    1
     9    21    22    1
    10    22    23    1
    11    23    24    1
    12    24    27    1
    13    27    28    1
    14    28    29    1
    15    28    30    1
    16    30    31    1
    17    31    32    1
    18    32    33    1
    19    33    34    1
    20    24    25    1
    21    25    26    1
    22     4     7    1
    23     7     8    1
    24     7     9    1
    25     7    10    1
    26    10    11    2
    27    11    12    1
    28    12    13    2
    29    13    14    1
    30    14    38    1
    31    38    39    3
    32    14    15    2
    33    15    16    1
    34    16    17    1
    35    17    18    2
    36    18    19    1
    37    19    20    2
    38     6     1   ar
    39    26    21    1
    40    18    10    1
    41    19     3    1
    42    34    28    1
    43    17    12    1
    44    29    35    1
@<TRIPOS>MOLECULE
*****
 39 44 0 0 0
SMALL
GASTEIGER

@<TRIPOS>ATOM
      1 C         140.3885  140.7448  159.6731 C.ar    1  UNL1       -0.0088
      2 C         140.0578  141.3016  161.0261 C.ar    1  UNL1       -0.0002
      3 C         140.8973  140.9343  162.2138 C.ar    1  UNL1        0.0351
      4 C         142.0673  140.0104  162.0484 C.ar    1  UNL1       -0.0133
      5 C         142.3979  139.4536  160.6953 C.ar    1  UNL1        0.0104
      6 C         141.5585  139.8208  159.5077 C.ar    1  UNL1        0.0436
      7 C         142.9067  139.6431  163.2360 C.3     1  UNL1        0.0545
      8 C         143.9919  139.0057  164.0523 C.3     1  UNL1        0.0103
      9 C         143.6141  138.8650  162.1665 C.3     1  UNL1        0.0103
     10 C         142.5762  140.1999  164.5891 C.2     1  UNL1        0.0648
     11 N         143.2171  140.0185  165.9331 N.2     1  UNL1       -0.2496
     12 C         142.4433  140.8304  166.9291 C.2     1  UNL1        0.0781
     13 C         142.6132  141.0358  168.4052 C.2     1  UNL1        0.0287
     14 C         141.6638  141.9244  169.1529 C.2     1  UNL1        0.0660
     15 C         140.5446  142.6076  168.4245 C.2     1  UNL1       -0.0110
     16 C         140.3747  142.4022  166.9484 C.3     1  UNL1        0.0547
     17 C         141.3240  141.5136  166.2007 C.2     1  UNL1        0.0041
     18 C         141.4062  141.1239  164.7545 C.2     1  UNL1        0.0506
     19 C         140.5668  141.4911  163.5669 C.2     1  UNL1        0.1961
     20 O         139.3967  142.4152  163.7323 O.2     1  UNL1       -0.2866
     21 N         141.8890  139.2640  158.1546 N.pl3   1  UNL1       -0.3049
     22 C         141.2992  137.9560  157.7173 C.3     1  UNL1        0.1081
     23 C         141.6297  137.3993  156.3643 C.3     1  UNL1        0.0939
     24 N         142.5501  138.1505  155.4486 N.3     1  UNL1       -0.2678
     25 C         143.1400  139.4584  155.8859 C.3     1  UNL1        0.0939
     26 C         142.8094  140.0152  157.2390 C.3     1  UNL1        0.1081
     27 C         142.8807  137.5937  154.0955 C.3     1  UNL1        0.0995
     28 C         142.1075  136.4274  153.5551 C.3     1  UNL1        0.1078
     29 O         143.2334  135.7027  154.2313 O.3     1  UNL1       -0.3852
     30 C         141.2502  137.5572  153.0666 C.3     1  UNL1        0.0604
     31 C         140.0107  137.2689  152.2724 C.3     1  UNL1        0.1446
     32 O         139.6286  135.8510  151.9669 O.3     1  UNL1       -0.3536
     33 C         140.4859  134.7213  152.4554 C.3     1  UNL1        0.1446
     34 C         141.7254  135.0094  153.2495 C.3     1  UNL1        0.0604
     35 H         143.8337  136.3464  154.6389 H       1  UNL1        0.2103
     36 C         139.8799  142.3350  157.6824 C.3     1  UNL1        0.0051
     37 C         139.5490  141.1120  158.4854 C.3     1  UNL1        0.0276
     38 C         141.8337  142.1298  170.6291 C.1     1  UNL1        0.1001
     39 N         142.0035  142.3353  172.1051 N.1     1  UNL1       -0.1908
@<TRIPOS>BOND
     1    36    37    1
     2    37     1    1
     3     1     2   ar
     4     2     3   ar
     5     3     4   ar
     6     4     5   ar
     7     5     6   ar
     8     6    21    1
     9    21    22    1
    10    22    23    1
    11    23    24    1
    12    24    27    1
    13    27    28    1
    14    28    29    1
    15    28    30    1
    16    30    31    1
    17    31    32    1
    18    32    33    1
    19    33    34    1
    20    24    25    1
    21    25    26    1
    22     4     7    1
    23     7     8    1
    24     7     9    1
    25     7    10    1
    26    10    11    2
    27    11    12    1
    28    12    13    2
    29    13    14    1
    30    14    38    1
    31    38    39    3
    32    14    15    2
    33    15    16    1
    34    16    17    1
    35    17    18    2
    36    18    19    1
    37    19    20    2
    38     6     1   ar
    39    26    21    1
    40    18    10    1
    41    19     3    1
    42    34    28    1
    43    17    12    1
    44    29    35    1
@<TRIPOS>MOLECULE
*****
 39 44 0 0 0
SMALL
GASTEIGER

@<TRIPOS>ATOM
      1 C         141.9576  138.9197  158.1891 C.ar    1  UNL1       -0.0088
      2 C         141.2999  138.5324  159.4803 C.ar    1  UNL1       -0.0002
      3 C         141.4304  139.4184  160.6837 C.ar    1  UNL1        0.0351
      4 C         142.2187  140.6915  160.5958 C.ar    1  UNL1       -0.0133
      5 C         142.8765  141.0788  159.3045 C.ar    1  UNL1        0.0104
      6 C         142.7459  140.1929  158.1011 C.ar    1  UNL1        0.0436
      7 C         142.3493  141.5774  161.7991 C.3     1  UNL1        0.0545
      8 C         142.7575  142.7378  162.6577 C.3     1  UNL1        0.0103
      9 C         143.1487  142.3676  160.8060 C.3     1  UNL1        0.0103
     10 C         141.6915  141.1902  163.0904 C.2     1  UNL1        0.0648
     11 N         141.6456  141.8574  164.4331 N.2     1  UNL1       -0.2496
     12 C         140.8290  140.9967  165.3508 C.2     1  UNL1        0.0781
     13 C         140.4439  141.1500  166.7924 C.2     1  UNL1        0.0287
     14 C         139.6000  140.1040  167.4585 C.2     1  UNL1        0.0660
     15 C         139.1412  138.9048  166.6831 C.2     1  UNL1       -0.0110
     16 C         139.5262  138.7515  165.2415 C.3     1  UNL1        0.0547
     17 C         140.3702  139.7975  164.5754 C.2     1  UNL1        0.0041
     18 C         140.9032  139.9171  163.1784 C.2     1  UNL1        0.0506
     19 C         140.7727  139.0312  161.9750 C.2     1  UNL1        0.1961
     20 O         139.9844  137.7580  162.0629 O.2     1  UNL1       -0.2866
     21 N         143.4036  140.5801  156.8098 N.pl3   1  UNL1       -0.3049
     22 C         142.6149  141.2899  155.7497 C.3     1  UNL1        0.1081
     23 C         143.2726  141.6772  154.4584 C.3     1  UNL1        0.0939
     24 N         144.7191  141.3545  154.2272 N.3     1  UNL1       -0.2678
     25 C         145.5079  140.6446  155.2874 C.3     1  UNL1        0.0939
     26 C         144.8501  140.2574  156.5787 C.3     1  UNL1        0.1081
     27 C         145.3768  141.7417  152.9359 C.3     1  UNL1        0.0995
     28 C         146.7734  142.2889  152.9402 C.3     1  UNL1        0.1078
     29 O         147.0580  140.8509  152.6223 O.3     1  UNL1       -0.3852
     30 C         146.0038  143.5369  153.2566 C.3     1  UNL1        0.0604
     31 C         146.7297  144.8327  153.4668 C.3     1  UNL1        0.1446
     32 O         148.2251  144.8804  153.3606 O.3     1  UNL1       -0.3536
     33 C         148.9948  143.6323  153.0442 C.3     1  UNL1        0.1446
     34 C         148.2690  142.3365  152.8340 C.3     1  UNL1        0.0604
     35 H         146.2241  140.3567  152.5853 H       1  UNL1        0.2103
     36 C         142.7683  136.8812  156.7972 C.3     1  UNL1        0.0051
     37 C         141.8270  138.0337  156.9856 C.3     1  UNL1        0.0276
     38 C         139.2149  140.2573  168.9002 C.1     1  UNL1        0.1001
     39 N         138.8298  140.4105  170.3417 N.1     1  UNL1       -0.1908
@<TRIPOS>BOND
     1    36    37    1
     2    37     1    1
     3     1     2   ar
     4     2     3   ar
     5     3     4   ar
     6     4     5   ar
     7     5     6   ar
     8     6    21    1
     9    21    22    1
    10    22    23    1
    11    23    24    1
    12    24    27    1
    13    27    28    1
    14    28    29    1
    15    28    30    1
    16    30    31    1
    17    31    32    1
    18    32    33    1
    19    33    34    1
    20    24    25    1
    21    25    26    1
    22     4     7    1
    23     7     8    1
    24     7     9    1
    25     7    10    1
    26    10    11    2
    27    11    12    1
    28    12    13    2
    29    13    14    1
    30    14    38    1
    31    38    39    3
    32    14    15    2
    33    15    16    1
    34    16    17    1
    35    17    18    2
    36    18    19    1
    37    19    20    2
    38     6     1   ar
    39    26    21    1
    40    18    10    1
    41    19     3    1
    42    34    28    1
    43    17    12    1
    44    29    35    1
@<TRIPOS>MOLECULE
*****
 39 44 0 0 0
SMALL
GASTEIGER

@<TRIPOS>ATOM
      1 C         140.0823  140.0146  161.8642 C.ar    1  UNL1       -0.0088
      2 C         140.1546  140.3644  160.4073 C.ar    1  UNL1       -0.0002
      3 C         140.2262  141.8017  159.9838 C.ar    1  UNL1        0.0351
      4 C         140.2255  142.8890  161.0171 C.ar    1  UNL1       -0.0133
      5 C         140.1533  142.5391  162.4740 C.ar    1  UNL1        0.0104
      6 C         140.0817  141.1019  162.8975 C.ar    1  UNL1        0.0436
      7 C         140.2971  144.3261  160.5936 C.3     1  UNL1        0.0545
      8 C         140.3500  145.8223  160.6873 C.3     1  UNL1        0.0103
      9 C         140.2433  144.4959  162.0829 C.3     1  UNL1        0.0103
     10 C         140.3693  144.6760  159.1367 C.2     1  UNL1        0.0648
     11 N         140.4481  145.9932  158.4235 N.2     1  UNL1       -0.2496
     12 C         140.4974  145.7200  156.9494 C.2     1  UNL1        0.0781
     13 C         140.5800  146.6324  155.7618 C.2     1  UNL1        0.0287
     14 C         140.6144  146.0587  154.3763 C.2     1  UNL1        0.0660
     15 C         140.5661  144.5726  154.1784 C.2     1  UNL1       -0.0110
     16 C         140.4835  143.6602  155.3661 C.3     1  UNL1        0.0547
     17 C         140.4491  144.2339  156.7516 C.2     1  UNL1        0.0041
     18 C         140.3700  143.5887  158.1034 C.2     1  UNL1        0.0506
     19 C         140.2984  142.1515  158.5270 C.2     1  UNL1        0.1961
     20 O         140.2990  141.0641  157.4936 O.2     1  UNL1       -0.2866
     21 N         140.0095  140.7521  164.3544 N.pl3   1  UNL1       -0.3049
     22 C         141.2562  140.7524  165.1885 C.3     1  UNL1        0.1081
     23 C         141.1840  140.4025  166.6452 C.3     1  UNL1        0.0939
     24 N         139.8651  140.0524  167.2680 N.3     1  UNL1       -0.2678
     25 C         138.6184  140.0521  166.4339 C.3     1  UNL1        0.0939
     26 C         138.6906  140.4020  164.9771 C.3     1  UNL1        0.1081
     27 C         139.7928  139.7025  168.7249 C.3     1  UNL1        0.0995
     28 C         140.7071  140.3768  169.7043 C.3     1  UNL1        0.1078
     29 O         141.4967  139.1324  169.4252 O.3     1  UNL1       -0.3852
     30 C         139.6001  141.3872  169.6433 C.3     1  UNL1        0.0604
     31 C         139.6815  142.6396  170.4649 C.3     1  UNL1        0.1446
     32 O         140.8700  142.8816  171.3474 O.3     1  UNL1       -0.3536
     33 C         141.9771  141.8713  171.4084 C.3     1  UNL1        0.1446
     34 C         141.8957  140.6189  170.5869 C.3     1  UNL1        0.0604
     35 H         141.0159  138.5805  168.7887 H       1  UNL1        0.2103
     36 C         138.6819  137.8875  162.3785 C.3     1  UNL1        0.0051
     37 C         140.0108  138.5774  162.2877 C.3     1  UNL1        0.0276
     38 C         140.6970  146.9712  153.1885 C.1     1  UNL1        0.1001
     39 N         140.7797  147.8836  152.0008 N.1     1  UNL1       -0.1908
@<TRIPOS>BOND
     1    36    37    1
     2    37     1    1
     3     1     2   ar
     4     2     3   ar
     5     3     4   ar
     6     4     5   ar
     7     5     6   ar
     8     6    21    1
     9    21    22    1
    10    22    23    1
    11    23    24    1
    12    24    27    1
    13    27    28    1
    14    28    29    1
    15    28    30    1
    16    30    31    1
    17    31    32    1
    18    32    33    1
    19    33    34    1
    20    24    25    1
    21    25    26    1
    22     4     7    1
    23     7     8    1
    24     7     9    1
    25     7    10    1
    26    10    11    2
    27    11    12    1
    28    12    13    2
    29    13    14    1
    30    14    38    1
    31    38    39    3
    32    14    15    2
    33    15    16    1
    34    16    17    1
    35    17    18    2
    36    18    19    1
    37    19    20    2
    38     6     1   ar
    39    26    21    1
    40    18    10    1
    41    19     3    1
    42    34    28    1
    43    17    12    1
    44    29    35    1
@<TRIPOS>MOLECULE
*****
 39 44 0 0 0
SMALL
GASTEIGER

@<TRIPOS>ATOM
      1 C         143.1349  140.9549  159.7293 C.ar    1  UNL1       -0.0088
      2 C         143.4649  141.2836  161.1552 C.ar    1  UNL1       -0.0002
      3 C         142.4228  141.1236  162.2222 C.ar    1  UNL1        0.0351
      4 C         141.0508  140.6349  161.8633 C.ar    1  UNL1       -0.0133
      5 C         140.7209  140.3061  160.4375 C.ar    1  UNL1        0.0104
      6 C         141.7629  140.4661  159.3705 C.ar    1  UNL1        0.0436
      7 C         140.0088  140.4749  162.9304 C.3     1  UNL1        0.0545
      8 C         138.6935  140.1631  163.5807 C.3     1  UNL1        0.0103
      9 C         139.2220  140.0378  161.7304 C.3     1  UNL1        0.0103
     10 C         140.3387  140.8036  164.3562 C.2     1  UNL1        0.0648
     11 N         139.5237  140.7453  165.6142 N.2     1  UNL1       -0.2496
     12 C         140.3920  141.1979  166.7505 C.2     1  UNL1        0.0781
     13 C         140.1265  141.3459  168.2193 C.2     1  UNL1        0.0287
     14 C         141.2127  141.8320  169.1325 C.2     1  UNL1        0.0660
     15 C         142.5643  142.1702  168.5768 C.2     1  UNL1       -0.0110
     16 C         142.8298  142.0222  167.1080 C.3     1  UNL1        0.0547
     17 C         141.7437  141.5361  166.1948 C.2     1  UNL1        0.0041
     18 C         141.7107  141.2924  164.7151 C.2     1  UNL1        0.0506
     19 C         142.7527  141.4524  163.6481 C.2     1  UNL1        0.1961
     20 O         144.1248  141.9412  164.0069 O.2     1  UNL1       -0.2866
     21 N         141.4330  140.1374  157.9446 N.pl3   1  UNL1       -0.3049
     22 C         141.4603  138.7121  157.4779 C.3     1  UNL1        0.1081
     23 C         141.1304  138.3833  156.0521 C.3     1  UNL1        0.0939
     24 N         140.7731  139.4798  155.0929 N.3     1  UNL1       -0.2678
     25 C         140.7458  140.9051  155.5596 C.3     1  UNL1        0.0939
     26 C         141.0757  141.2339  156.9855 C.3     1  UNL1        0.1081
     27 C         140.4432  139.1511  153.6671 C.3     1  UNL1        0.0995
     28 C         139.2404  138.3130  153.3496 C.3     1  UNL1        0.1078
     29 O         140.3266  137.3007  153.1371 O.3     1  UNL1       -0.3852
     30 C         138.5718  139.6164  153.6724 C.3     1  UNL1        0.0604
     31 C         137.0776  139.7301  153.6039 C.3     1  UNL1        0.1446
     32 O         136.2521  138.5404  153.2127 O.3     1  UNL1       -0.3536
     33 C         136.9207  137.2370  152.8899 C.3     1  UNL1        0.1446
     34 C         138.4148  137.1232  152.9584 C.3     1  UNL1        0.0604
     35 H         141.1886  137.7101  153.3106 H       1  UNL1        0.2103
     36 C         144.6059  142.4865  158.2325 C.3     1  UNL1        0.0051
     37 C         144.1770  141.1149  158.6623 C.3     1  UNL1        0.0276
     38 C         140.9472  141.9800  170.6014 C.1     1  UNL1        0.1001
     39 N         140.6817  142.1280  172.0703 N.1     1  UNL1       -0.1908
@<TRIPOS>BOND
     1    36    37    1
     2    37     1    1
     3     1     2   ar
     4     2     3   ar
     5     3     4   ar
     6     4     5   ar
     7     5     6   ar
     8     6    21    1
     9    21    22    1
    10    22    23    1
    11    23    24    1
    12    24    27    1
    13    27    28    1
    14    28    29    1
    15    28    30    1
    16    30    31    1
    17    31    32    1
    18    32    33    1
    19    33    34    1
    20    24    25    1
    21    25    26    1
    22     4     7    1
    23     7     8    1
    24     7     9    1
    25     7    10    1
    26    10    11    2
    27    11    12    1
    28    12    13    2
    29    13    14    1
    30    14    38    1
    31    38    39    3
    32    14    15    2
    33    15    16    1
    34    16    17    1
    35    17    18    2
    36    18    19    1
    37    19    20    2
    38     6     1   ar
    39    26    21    1
    40    18    10    1
    41    19     3    1
    42    34    28    1
    43    17    12    1
    44    29    35    1
@<TRIPOS>MOLECULE
*****
 39 44 0 0 0
SMALL
GASTEIGER

@<TRIPOS>ATOM
      1 C         140.0538  143.7362  162.5970 C.ar    1  UNL1       -0.0088
      2 C         140.2022  143.2673  164.0141 C.ar    1  UNL1       -0.0002
      3 C         141.0454  142.0655  164.3219 C.ar    1  UNL1        0.0351
      4 C         141.7402  141.3327  163.2126 C.ar    1  UNL1       -0.0133
      5 C         141.5917  141.8017  161.7956 C.ar    1  UNL1        0.0104
      6 C         140.7485  143.0035  161.4878 C.ar    1  UNL1        0.0436
      7 C         142.5834  140.1310  163.5204 C.3     1  UNL1        0.0545
      8 C         143.4836  138.9495  163.3109 C.3     1  UNL1        0.0103
      9 C         142.7476  140.1896  162.0306 C.3     1  UNL1        0.0103
     10 C         142.7319  139.6620  164.9375 C.2     1  UNL1        0.0648
     11 N         143.4911  138.5181  165.5419 N.2     1  UNL1       -0.2496
     12 C         143.2656  138.5440  167.0246 C.2     1  UNL1        0.0781
     13 C         143.7624  137.6612  168.1309 C.2     1  UNL1        0.0287
     14 C         143.3606  137.9383  169.5492 C.2     1  UNL1        0.0660
     15 C         142.4620  139.0981  169.8613 C.2     1  UNL1       -0.0110
     16 C         141.9652  139.9809  168.7550 C.3     1  UNL1        0.0547
     17 C         142.3670  139.7038  167.3366 C.2     1  UNL1        0.0041
     18 C         142.0371  140.3947  166.0467 C.2     1  UNL1        0.0506
     19 C         141.1939  141.5965  165.7389 C.2     1  UNL1        0.1961
     20 O         140.4991  142.3293  166.8482 O.2     1  UNL1       -0.2866
     21 N         140.6000  143.4725  160.0707 N.pl3   1  UNL1       -0.3049
     22 C         139.4261  143.0243  159.2515 C.3     1  UNL1        0.1081
     23 C         139.2776  143.4933  157.8345 C.3     1  UNL1        0.0939
     24 N         140.3030  144.4104  157.2367 N.3     1  UNL1       -0.2678
     25 C         141.4769  144.8585  158.0559 C.3     1  UNL1        0.0939
     26 C         141.6254  144.3895  159.4730 C.3     1  UNL1        0.1081
     27 C         140.1545  144.8794  155.8196 C.3     1  UNL1        0.0995
     28 C         138.8533  144.6877  155.0986 C.3     1  UNL1        0.1078
     29 O         138.5785  145.9902  155.7899 O.3     1  UNL1       -0.3852
     30 C         139.5799  143.4517  154.6577 C.3     1  UNL1        0.0604
     31 C         138.9099  142.4764  153.7358 C.3     1  UNL1        0.1446
     32 O         137.5132  142.7370  153.2549 O.3     1  UNL1       -0.3536
     33 C         136.7865  143.9730  153.6959 C.3     1  UNL1        0.1446
     34 C         137.4565  144.9483  154.6177 C.3     1  UNL1        0.0604
     35 H         139.3544  146.2496  156.3110 H       1  UNL1        0.2103
     36 C         139.8599  146.2694  162.0534 C.3     1  UNL1        0.0051
     37 C         139.2105  144.9380  162.2892 C.3     1  UNL1        0.0276
     38 C         143.8574  137.0556  170.6556 C.1     1  UNL1        0.1001
     39 N         144.3542  136.1729  171.7619 N.1     1  UNL1       -0.1908
@<TRIPOS>BOND
     1    36    37    1
     2    37     1    1
     3     1     2   ar
     4     2     3   ar
     5     3     4   ar
     6     4     5   ar
     7     5     6   ar
     8     6    21    1
     9    21    22    1
    10    22    23    1
    11    23    24    1
    12    24    27    1
    13    27    28    1
    14    28    29    1
    15    28    30    1
    16    30    31    1
    17    31    32    1
    18    32    33    1
    19    33    34    1
    20    24    25    1
    21    25    26    1
    22     4     7    1
    23     7     8    1
    24     7     9    1
    25     7    10    1
    26    10    11    2
    27    11    12    1
    28    12    13    2
    29    13    14    1
    30    14    38    1
    31    38    39    3
    32    14    15    2
    33    15    16    1
    34    16    17    1
    35    17    18    2
    36    18    19    1
    37    19    20    2
    38     6     1   ar
    39    26    21    1
    40    18    10    1
    41    19     3    1
    42    34    28    1
    43    17    12    1
    44    29    35    1
