@<TRIPOS>MOLECULE
*****
 28 31 0 0 0
SMALL
GASTEIGER

@<TRIPOS>ATOM
      1 O         142.8765  138.3563  164.8130 O.2     1  UNL1       -0.2520
      2 C         141.8820  138.2463  163.6954 C.2     1  UNL1        0.3111
      3 N         142.2050  138.0451  162.2445 N.am    1  UNL1       -0.2606
      4 C         140.9125  137.9927  161.4849 C.3     1  UNL1        0.1169
      5 C         139.7908  138.1615  162.4665 C.3     1  UNL1        0.1212
      6 N         140.3900  138.3183  163.8326 N.am    1  UNL1       -0.2413
      7 C         139.6306  138.5128  165.1114 C.ar    1  UNL1        0.0584
      8 C         138.4511  137.6401  165.4234 C.ar    1  UNL1        0.0152
      9 C         137.6917  137.8347  166.7022 C.ar    1  UNL1        0.0044
     10 C         138.1117  138.9020  167.6690 C.ar    1  UNL1        0.0373
     11 C         139.2911  139.7746  167.3570 C.ar    1  UNL1        0.1480
     12 C         140.0506  139.5800  166.0782 C.ar    1  UNL1        0.0521
     13 O         139.7111  140.8418  168.3238 O.3     1  UNL1       -0.4044
     14 C         139.9281  140.5017  169.7686 C.3     1  UNL1        0.5753
     15 F         140.1451  140.1616  171.2132 F       1  UNL1       -0.1328
     16 F         138.7586  141.3616  170.1465 F       1  UNL1       -0.1328
     17 F         141.0976  139.6419  169.3904 F       1  UNL1       -0.1328
     18 C         143.5790  137.9185  161.6564 C.3     1  UNL1        0.1123
     19 C         144.2770  139.1301  161.1134 C.3     1  UNL1        0.0944
     20 N         144.1861  140.4378  161.8426 N.3     1  UNL1       -0.2637
     21 C         143.5704  141.7001  161.3159 C.3     1  UNL1        0.0992
     22 C         143.6988  142.7552  162.3743 C.ar    1  UNL1       -0.0088
     23 C         143.2726  144.1928  162.4153 C.ar    1  UNL1       -0.0032
     24 C         143.5414  145.0201  163.6373 C.ar    1  UNL1       -0.0003
     25 C         144.2363  144.4098  164.8183 C.ar    1  UNL1       -0.0003
     26 C         144.6625  142.9723  164.7772 C.ar    1  UNL1       -0.0032
     27 C         144.3937  142.1450  163.5552 C.ar    1  UNL1       -0.0088
     28 C         144.6949  140.7127  163.2266 C.3     1  UNL1        0.0992
@<TRIPOS>BOND
     1     1     2    2
     2     2     3   am
     3     3    18    1
     4    18    19    1
     5    19    20    1
     6    20    21    1
     7    21    22    1
     8    22    23   ar
     9    23    24   ar
    10    24    25   ar
    11    25    26   ar
    12    26    27   ar
    13    27    28    1
    14     3     4    1
    15     4     5    1
    16     5     6    1
    17     6     7    1
    18     7     8   ar
    19     8     9   ar
    20     9    10   ar
    21    10    11   ar
    22    11    13    1
    23    13    14    1
    24    14    15    1
    25    14    16    1
    26    14    17    1
    27    11    12   ar
    28     6     2   am
    29    12     7   ar
    30    28    20    1
    31    27    22   ar
@<TRIPOS>MOLECULE
*****
 28 31 0 0 0
SMALL
GASTEIGER

@<TRIPOS>ATOM
      1 O         142.2827  140.9663  162.4525 O.2     1  UNL1       -0.2520
      2 C         143.0473  141.9310  163.3095 C.2     1  UNL1        0.3111
      3 N         144.3576  141.6609  163.9878 N.am    1  UNL1       -0.2606
      4 C         144.7560  142.8983  164.7363 C.3     1  UNL1        0.1169
      5 C         143.6917  143.9332  164.5206 C.3     1  UNL1        0.1212
      6 N         142.6357  143.3354  163.6389 N.am    1  UNL1       -0.2413
      7 C         141.3874  144.0215  163.1690 C.ar    1  UNL1        0.0584
      8 C         141.4669  145.3924  162.5653 C.ar    1  UNL1        0.0152
      9 C         140.2185  146.0784  162.0955 C.ar    1  UNL1        0.0044
     10 C         138.8906  145.3936  162.2292 C.ar    1  UNL1        0.0373
     11 C         138.8111  144.0228  162.8329 C.ar    1  UNL1        0.1480
     12 C         140.0595  143.3367  163.3028 C.ar    1  UNL1        0.0521
     13 O         137.4833  143.3380  162.9667 O.3     1  UNL1       -0.4044
     14 C         137.4232  141.8765  163.2993 C.3     1  UNL1        0.5753
     15 F         137.3632  140.4152  163.6320 F       1  UNL1       -0.1328
     16 F         137.4464  141.5428  161.8371 F       1  UNL1       -0.1328
     17 F         137.4001  142.2104  164.7615 F       1  UNL1       -0.1328
     18 C         145.1335  140.3785  163.9280 C.3     1  UNL1        0.1123
     19 C         144.6552  139.1765  164.6871 C.3     1  UNL1        0.0944
     20 N         143.2098  139.0576  165.0702 N.3     1  UNL1       -0.2637
     21 C         142.5178  139.8326  166.1520 C.3     1  UNL1        0.0992
     22 C         141.0829  139.3968  166.1891 C.ar    1  UNL1       -0.0088
     23 C         139.9286  139.8161  167.0503 C.ar    1  UNL1       -0.0032
     24 C         138.5795  139.1909  166.8526 C.ar    1  UNL1       -0.0003
     25 C         138.3848  138.1466  165.7936 C.ar    1  UNL1       -0.0003
     26 C         139.5391  137.7273  164.9324 C.ar    1  UNL1       -0.0032
     27 C         140.8882  138.3525  165.1301 C.ar    1  UNL1       -0.0088
     28 C         142.2027  138.1428  164.4386 C.3     1  UNL1        0.0992
@<TRIPOS>BOND
     1     1     2    2
     2     2     3   am
     3     3    18    1
     4    18    19    1
     5    19    20    1
     6    20    21    1
     7    21    22    1
     8    22    23   ar
     9    23    24   ar
    10    24    25   ar
    11    25    26   ar
    12    26    27   ar
    13    27    28    1
    14     3     4    1
    15     4     5    1
    16     5     6    1
    17     6     7    1
    18     7     8   ar
    19     8     9   ar
    20     9    10   ar
    21    10    11   ar
    22    11    13    1
    23    13    14    1
    24    14    15    1
    25    14    16    1
    26    14    17    1
    27    11    12   ar
    28     6     2   am
    29    12     7   ar
    30    28    20    1
    31    27    22   ar
@<TRIPOS>MOLECULE
*****
 28 31 0 0 0
SMALL
GASTEIGER

@<TRIPOS>ATOM
      1 O         143.4570  143.0132  164.1245 O.2     1  UNL1       -0.2520
      2 C         143.5329  142.0697  162.9608 C.2     1  UNL1        0.3111
      3 N         144.3356  140.8038  162.9031 N.am    1  UNL1       -0.2606
      4 C         144.1183  140.1782  161.5571 C.3     1  UNL1        0.1169
      5 C         143.1812  141.0574  160.7832 C.3     1  UNL1        0.1212
      6 N         142.8195  142.2264  161.6507 N.am    1  UNL1       -0.2413
      7 C         141.9049  143.3541  161.2742 C.ar    1  UNL1        0.0584
      8 C         142.0729  144.0473  159.9547 C.ar    1  UNL1        0.0152
      9 C         141.1582  145.1750  159.5782 C.ar    1  UNL1        0.0044
     10 C         140.0756  145.6094  160.5212 C.ar    1  UNL1        0.0373
     11 C         139.9076  144.9161  161.8407 C.ar    1  UNL1        0.1480
     12 C         140.8223  143.7884  162.2172 C.ar    1  UNL1        0.0521
     13 O         138.8250  145.3505  162.7837 O.3     1  UNL1       -0.4044
     14 C         138.1986  144.3559  163.7158 C.3     1  UNL1        0.5753
     15 F         137.5723  143.3615  164.6477 F       1  UNL1       -0.1328
     16 F         137.5191  143.6948  162.5534 F       1  UNL1       -0.1328
     17 F         138.8782  145.0172  164.8780 F       1  UNL1       -0.1328
     18 C         145.2033  140.2592  163.9987 C.3     1  UNL1        0.1123
     19 C         144.7007  139.1471  164.8707 C.3     1  UNL1        0.0944
     20 N         143.2399  139.0522  165.1979 N.3     1  UNL1       -0.2637
     21 C         142.2475  138.1369  164.5442 C.3     1  UNL1        0.0992
     22 C         140.9093  138.3750  165.1785 C.ar    1  UNL1       -0.0088
     23 C         139.5616  137.7616  164.9389 C.ar    1  UNL1       -0.0032
     24 C         138.3791  138.2107  165.7451 C.ar    1  UNL1       -0.0003
     25 C         138.5444  139.2733  166.7909 C.ar    1  UNL1       -0.0003
     26 C         139.8920  139.8867  167.0305 C.ar    1  UNL1       -0.0032
     27 C         141.0745  139.4376  166.2243 C.ar    1  UNL1       -0.0088
     28 C         142.5149  139.8561  166.2362 C.3     1  UNL1        0.0992
@<TRIPOS>BOND
     1     1     2    2
     2     2     3   am
     3     3    18    1
     4    18    19    1
     5    19    20    1
     6    20    21    1
     7    21    22    1
     8    22    23   ar
     9    23    24   ar
    10    24    25   ar
    11    25    26   ar
    12    26    27   ar
    13    27    28    1
    14     3     4    1
    15     4     5    1
    16     5     6    1
    17     6     7    1
    18     7     8   ar
    19     8     9   ar
    20     9    10   ar
    21    10    11   ar
    22    11    13    1
    23    13    14    1
    24    14    15    1
    25    14    16    1
    26    14    17    1
    27    11    12   ar
    28     6     2   am
    29    12     7   ar
    30    28    20    1
    31    27    22   ar
@<TRIPOS>MOLECULE
*****
 28 31 0 0 0
SMALL
GASTEIGER

@<TRIPOS>ATOM
      1 O         142.5544  142.0708  164.8875 O.2     1  UNL1       -0.2520
      2 C         143.2277  142.2514  163.5594 C.2     1  UNL1        0.3111
      3 N         144.5545  141.6781  163.1583 N.am    1  UNL1       -0.2606
      4 C         144.8393  142.1094  161.7501 C.3     1  UNL1        0.1169
      5 C         143.6885  142.9493  161.2809 C.3     1  UNL1        0.1212
      6 N         142.6925  143.0371  162.3991 N.am    1  UNL1       -0.2413
      7 C         141.3900  143.7801  162.3632 C.ar    1  UNL1        0.0584
      8 C         141.3828  145.2792  162.3121 C.ar    1  UNL1        0.0152
      9 C         140.0802  146.0222  162.2762 C.ar    1  UNL1        0.0044
     10 C         138.7848  145.2660  162.2915 C.ar    1  UNL1        0.0373
     11 C         138.7920  143.7670  162.3426 C.ar    1  UNL1        0.1480
     12 C         140.0946  143.0240  162.3785 C.ar    1  UNL1        0.0521
     13 O         137.4966  143.0108  162.3579 O.3     1  UNL1       -0.4044
     14 C         137.4073  141.6902  163.0637 C.3     1  UNL1        0.5753
     15 F         137.3180  140.3697  163.7695 F       1  UNL1       -0.1328
     16 F         137.3730  142.3989  164.3853 F       1  UNL1       -0.1328
     17 F         137.4416  140.9816  161.7421 F       1  UNL1       -0.1328
     18 C         145.4409  140.8234  164.0150 C.3     1  UNL1        0.1123
     19 C         145.0469  139.4099  164.3257 C.3     1  UNL1        0.0944
     20 N         143.6194  138.9771  164.1674 N.3     1  UNL1       -0.2637
     21 C         142.9212  138.6993  162.8692 C.3     1  UNL1        0.0992
     22 C         141.5098  138.2966  163.1789 C.ar    1  UNL1       -0.0088
     23 C         140.3607  137.9073  162.2970 C.ar    1  UNL1       -0.0032
     24 C         139.0374  137.5471  162.9046 C.ar    1  UNL1       -0.0003
     25 C         138.8634  137.5761  164.3942 C.ar    1  UNL1       -0.0003
     26 C         140.0125  137.9654  165.2761 C.ar    1  UNL1       -0.0032
     27 C         141.3357  138.3256  164.6685 C.ar    1  UNL1       -0.0088
     28 C         142.6396  138.7462  165.2794 C.3     1  UNL1        0.0992
@<TRIPOS>BOND
     1     1     2    2
     2     2     3   am
     3     3    18    1
     4    18    19    1
     5    19    20    1
     6    20    21    1
     7    21    22    1
     8    22    23   ar
     9    23    24   ar
    10    24    25   ar
    11    25    26   ar
    12    26    27   ar
    13    27    28    1
    14     3     4    1
    15     4     5    1
    16     5     6    1
    17     6     7    1
    18     7     8   ar
    19     8     9   ar
    20     9    10   ar
    21    10    11   ar
    22    11    13    1
    23    13    14    1
    24    14    15    1
    25    14    16    1
    26    14    17    1
    27    11    12   ar
    28     6     2   am
    29    12     7   ar
    30    28    20    1
    31    27    22   ar
@<TRIPOS>MOLECULE
*****
 28 31 0 0 0
SMALL
GASTEIGER

@<TRIPOS>ATOM
      1 O         141.1805  140.5997  160.6545 O.2     1  UNL1       -0.2520
      2 C         142.4907  141.1889  161.0861 C.2     1  UNL1        0.3111
      3 N         143.7911  140.4515  161.2093 N.am    1  UNL1       -0.2606
      4 C         144.8346  141.4258  161.6696 C.3     1  UNL1        0.1169
      5 C         144.1791  142.7653  161.8309 C.3     1  UNL1        0.1212
      6 N         142.7304  142.6189  161.4702 N.am    1  UNL1       -0.2413
      7 C         141.7022  143.7108  161.4902 C.ar    1  UNL1        0.0584
      8 C         141.5400  144.6101  160.3007 C.ar    1  UNL1        0.0152
      9 C         140.5117  145.7020  160.3208 C.ar    1  UNL1        0.0044
     10 C         139.6457  145.8946  161.5303 C.ar    1  UNL1        0.0373
     11 C         139.8080  144.9953  162.7198 C.ar    1  UNL1        0.1480
     12 C         140.8362  143.9034  162.6998 C.ar    1  UNL1        0.0521
     13 O         138.9420  145.1879  163.9294 O.3     1  UNL1       -0.4044
     14 C         138.0885  144.0596  164.4281 C.3     1  UNL1        0.5753
     15 F         137.2351  142.9314  164.9268 F       1  UNL1       -0.1328
     16 F         138.9358  143.9642  165.6622 F       1  UNL1       -0.1328
     17 F         137.2413  144.1550  163.1939 F       1  UNL1       -0.1328
     18 C         144.0096  138.9954  160.9226 C.3     1  UNL1        0.1123
     19 C         143.7300  137.9720  161.9830 C.3     1  UNL1        0.0944
     20 N         142.6002  138.1807  162.9474 N.3     1  UNL1       -0.2637
     21 C         142.6294  139.0591  164.1629 C.3     1  UNL1        0.0992
     22 C         141.2901  138.9689  164.8323 C.ar    1  UNL1       -0.0088
     23 C         140.7402  139.6167  166.0684 C.ar    1  UNL1       -0.0032
     24 C         139.3333  139.3303  166.5027 C.ar    1  UNL1       -0.0003
     25 C         138.4764  138.3960  165.7009 C.ar    1  UNL1       -0.0003
     26 C         139.0263  137.7482  164.4649 C.ar    1  UNL1       -0.0032
     27 C         140.4331  138.0346  164.0306 C.ar    1  UNL1       -0.0088
     28 C         141.2428  137.5475  162.8656 C.3     1  UNL1        0.0992
@<TRIPOS>BOND
     1     1     2    2
     2     2     3   am
     3     3    18    1
     4    18    19    1
     5    19    20    1
     6    20    21    1
     7    21    22    1
     8    22    23   ar
     9    23    24   ar
    10    24    25   ar
    11    25    26   ar
    12    26    27   ar
    13    27    28    1
    14     3     4    1
    15     4     5    1
    16     5     6    1
    17     6     7    1
    18     7     8   ar
    19     8     9   ar
    20     9    10   ar
    21    10    11   ar
    22    11    13    1
    23    13    14    1
    24    14    15    1
    25    14    16    1
    26    14    17    1
    27    11    12   ar
    28     6     2   am
    29    12     7   ar
    30    28    20    1
    31    27    22   ar
@<TRIPOS>MOLECULE
*****
 28 31 0 0 0
SMALL
GASTEIGER

@<TRIPOS>ATOM
      1 O         139.6235  144.2327  165.2580 O.2     1  UNL1       -0.2520
      2 C         139.0926  143.4587  164.0879 C.2     1  UNL1        0.3111
      3 N         138.8558  143.9980  162.7084 N.am    1  UNL1       -0.2606
      4 C         138.3221  142.8821  161.8598 C.3     1  UNL1        0.1169
      5 C         138.2292  141.6532  162.7149 C.3     1  UNL1        0.1212
      6 N         138.7054  142.0096  164.0920 N.am    1  UNL1       -0.2413
      7 C         138.7810  141.0800  165.2667 C.ar    1  UNL1        0.0584
      8 C         137.9598  139.8249  165.2841 C.ar    1  UNL1        0.0152
      9 C         138.0355  138.8953  166.4589 C.ar    1  UNL1        0.0044
     10 C         138.9324  139.2209  167.6163 C.ar    1  UNL1        0.0373
     11 C         139.7535  140.4760  167.5990 C.ar    1  UNL1        0.1480
     12 C         139.6779  141.4056  166.4242 C.ar    1  UNL1        0.0521
     13 O         140.6504  140.8016  168.7564 O.3     1  UNL1       -0.4044
     14 C         141.4393  139.7138  169.4231 C.3     1  UNL1        0.5753
     15 F         142.2282  138.6260  170.0897 F       1  UNL1       -0.1328
     16 F         140.4250  139.6544  170.5265 F       1  UNL1       -0.1328
     17 F         142.4536  139.7733  168.3196 F       1  UNL1       -0.1328
     18 C         139.1082  145.4059  162.2567 C.3     1  UNL1        0.1123
     19 C         140.5145  145.8917  162.0663 C.3     1  UNL1        0.0944
     20 N         141.6696  144.9998  162.4132 N.3     1  UNL1       -0.2637
     21 C         142.3295  144.0145  161.4947 C.3     1  UNL1        0.0992
     22 C         143.4353  143.3423  162.2533 C.ar    1  UNL1       -0.0088
     23 C         144.4239  142.2849  161.8600 C.ar    1  UNL1       -0.0032
     24 C         145.4359  141.7975  162.8541 C.ar    1  UNL1       -0.0003
     25 C         145.4594  142.3674  164.2414 C.ar    1  UNL1       -0.0003
     26 C         144.4708  143.4247  164.6347 C.ar    1  UNL1       -0.0032
     27 C         143.4588  143.9122  163.6406 C.ar    1  UNL1       -0.0088
     28 C         142.3675  144.9366  163.7394 C.3     1  UNL1        0.0992
@<TRIPOS>BOND
     1     1     2    2
     2     2     3   am
     3     3    18    1
     4    18    19    1
     5    19    20    1
     6    20    21    1
     7    21    22    1
     8    22    23   ar
     9    23    24   ar
    10    24    25   ar
    11    25    26   ar
    12    26    27   ar
    13    27    28    1
    14     3     4    1
    15     4     5    1
    16     5     6    1
    17     6     7    1
    18     7     8   ar
    19     8     9   ar
    20     9    10   ar
    21    10    11   ar
    22    11    13    1
    23    13    14    1
    24    14    15    1
    25    14    16    1
    26    14    17    1
    27    11    12   ar
    28     6     2   am
    29    12     7   ar
    30    28    20    1
    31    27    22   ar
@<TRIPOS>MOLECULE
*****
 28 31 0 0 0
SMALL
GASTEIGER

@<TRIPOS>ATOM
      1 O         137.8878  142.3454  164.8710 O.2     1  UNL1       -0.2520
      2 C         138.5155  141.0148  164.5786 C.2     1  UNL1        0.3111
      3 N         138.4973  140.3022  163.2588 N.am    1  UNL1       -0.2606
      4 C         139.2422  139.0101  163.4193 C.3     1  UNL1        0.1169
      5 C         139.7208  138.9242  164.8383 C.3     1  UNL1        0.1212
      6 N         139.2717  140.1631  165.5548 N.am    1  UNL1       -0.2413
      7 C         139.5328  140.4925  166.9947 C.ar    1  UNL1        0.0584
      8 C         138.8242  139.7346  168.0779 C.ar    1  UNL1        0.0152
      9 C         139.0855  140.0640  169.5178 C.ar    1  UNL1        0.0044
     10 C         140.0553  141.1513  169.8744 C.ar    1  UNL1        0.0373
     11 C         140.7639  141.9092  168.7912 C.ar    1  UNL1        0.1480
     12 C         140.5027  141.5798  167.3513 C.ar    1  UNL1        0.0521
     13 O         141.7338  142.9965  169.1478 O.3     1  UNL1       -0.4044
     14 C         143.1277  142.6469  169.5777 C.3     1  UNL1        0.5753
     15 F         144.5215  142.2972  170.0076 F       1  UNL1       -0.1328
     16 F         142.7042  142.7255  171.0145 F       1  UNL1       -0.1328
     17 F         143.5511  142.5682  168.1408 F       1  UNL1       -0.1328
     18 C         137.8482  140.7952  161.9996 C.3     1  UNL1        0.1123
     19 C         138.3158  142.0711  161.3646 C.3     1  UNL1        0.0944
     20 N         139.6462  142.6527  161.7413 N.3     1  UNL1       -0.2637
     21 C         140.9873  142.1414  161.3053 C.3     1  UNL1        0.0992
     22 C         142.0390  143.0204  161.9146 C.ar    1  UNL1       -0.0088
     23 C         143.5366  142.9967  161.8345 C.ar    1  UNL1       -0.0032
     24 C         144.3432  144.0276  162.5670 C.ar    1  UNL1       -0.0003
     25 C         143.6522  145.0822  163.3796 C.ar    1  UNL1       -0.0003
     26 C         142.1545  145.1059  163.4597 C.ar    1  UNL1       -0.0032
     27 C         141.3479  144.0749  162.7272 C.ar    1  UNL1       -0.0088
     28 C         139.8691  143.8477  162.6201 C.3     1  UNL1        0.0992
@<TRIPOS>BOND
     1     1     2    2
     2     2     3   am
     3     3    18    1
     4    18    19    1
     5    19    20    1
     6    20    21    1
     7    21    22    1
     8    22    23   ar
     9    23    24   ar
    10    24    25   ar
    11    25    26   ar
    12    26    27   ar
    13    27    28    1
    14     3     4    1
    15     4     5    1
    16     5     6    1
    17     6     7    1
    18     7     8   ar
    19     8     9   ar
    20     9    10   ar
    21    10    11   ar
    22    11    13    1
    23    13    14    1
    24    14    15    1
    25    14    16    1
    26    14    17    1
    27    11    12   ar
    28     6     2   am
    29    12     7   ar
    30    28    20    1
    31    27    22   ar
@<TRIPOS>MOLECULE
*****
 28 31 0 0 0
SMALL
GASTEIGER

@<TRIPOS>ATOM
      1 O         142.0259  142.2336  161.8784 O.2     1  UNL1       -0.2520
      2 C         140.9899  142.9944  162.6516 C.2     1  UNL1        0.3111
      3 N         141.1955  144.3092  163.3438 N.am    1  UNL1       -0.2606
      4 C         139.8990  144.7013  163.9885 C.3     1  UNL1        0.1169
      5 C         138.8923  143.6288  163.6947 C.3     1  UNL1        0.1212
      6 N         139.5665  142.5739  162.8685 N.am    1  UNL1       -0.2413
      7 C         138.9291  141.3189  162.3502 C.ar    1  UNL1        0.0584
      8 C         138.0949  141.3607  161.1043 C.ar    1  UNL1        0.0152
      9 C         137.4575  140.1057  160.5860 C.ar    1  UNL1        0.0044
     10 C         137.6544  138.8088  161.3136 C.ar    1  UNL1        0.0373
     11 C         138.4887  138.7670  162.5595 C.ar    1  UNL1        0.1480
     12 C         139.1261  140.0221  163.0778 C.ar    1  UNL1        0.0521
     13 O         138.6856  137.4701  163.2871 O.3     1  UNL1       -0.4044
     14 C         139.9753  137.2009  164.0044 C.3     1  UNL1        0.5753
     15 F         141.2648  136.9317  164.7217 F       1  UNL1       -0.1328
     16 F         139.2567  137.2630  165.3196 F       1  UNL1       -0.1328
     17 F         140.6938  137.1389  162.6892 F       1  UNL1       -0.1328
     18 C         142.4731  145.0940  163.3842 C.3     1  UNL1        0.1123
     19 C         143.6606  144.5561  164.1261 C.3     1  UNL1        0.0944
     20 N         143.6293  143.1637  164.6830 N.3     1  UNL1       -0.2637
     21 C         142.8588  142.7134  165.8886 C.3     1  UNL1        0.0992
     22 C         143.1163  141.2485  166.0828 C.ar    1  UNL1       -0.0088
     23 C         142.6244  140.2702  167.1079 C.ar    1  UNL1       -0.0032
     24 C         143.0621  138.8368  167.0474 C.ar    1  UNL1       -0.0003
     25 C         143.9917  138.3817  165.9618 C.ar    1  UNL1       -0.0003
     26 C         144.4837  139.3599  164.9367 C.ar    1  UNL1       -0.0032
     27 C         144.0460  140.7933  164.9972 C.ar    1  UNL1       -0.0088
     28 C         144.3630  141.9770  164.1321 C.3     1  UNL1        0.0992
@<TRIPOS>BOND
     1     1     2    2
     2     2     3   am
     3     3    18    1
     4    18    19    1
     5    19    20    1
     6    20    21    1
     7    21    22    1
     8    22    23   ar
     9    23    24   ar
    10    24    25   ar
    11    25    26   ar
    12    26    27   ar
    13    27    28    1
    14     3     4    1
    15     4     5    1
    16     5     6    1
    17     6     7    1
    18     7     8   ar
    19     8     9   ar
    20     9    10   ar
    21    10    11   ar
    22    11    13    1
    23    13    14    1
    24    14    15    1
    25    14    16    1
    26    14    17    1
    27    11    12   ar
    28     6     2   am
    29    12     7   ar
    30    28    20    1
    31    27    22   ar
@<TRIPOS>MOLECULE
*****
 28 31 0 0 0
SMALL
GASTEIGER

@<TRIPOS>ATOM
      1 O         141.7631  140.6848  162.3492 O.2     1  UNL1       -0.2520
      2 C         143.1353  141.2638  162.5279 C.2     1  UNL1        0.3111
      3 N         143.8725  142.1082  161.5312 N.am    1  UNL1       -0.2606
      4 C         145.2041  142.4664  162.1220 C.3     1  UNL1        0.1169
      5 C         145.2896  141.8433  163.4838 C.3     1  UNL1        0.1212
      6 N         144.0110  141.1000  163.7346 N.am    1  UNL1       -0.2413
      7 C         143.6685  140.3285  164.9745 C.ar    1  UNL1        0.0584
      8 C         144.1672  138.9243  165.1458 C.ar    1  UNL1        0.0152
      9 C         143.8246  138.1528  166.3858 C.ar    1  UNL1        0.0044
     10 C         142.9833  138.7856  167.4543 C.ar    1  UNL1        0.0373
     11 C         142.4846  140.1898  167.2830 C.ar    1  UNL1        0.1480
     12 C         142.8272  140.9613  166.0430 C.ar    1  UNL1        0.0521
     13 O         141.6432  140.8226  168.3516 O.3     1  UNL1       -0.4044
     14 C         140.2352  140.3548  168.5728 C.3     1  UNL1        0.5753
     15 F         138.8274  139.8871  168.7941 F       1  UNL1       -0.1328
     16 F         139.7777  141.1812  167.4076 F       1  UNL1       -0.1328
     17 F         140.6929  139.5286  169.7381 F       1  UNL1       -0.1328
     18 C         143.3671  142.5219  160.1809 C.3     1  UNL1        0.1123
     19 C         142.3287  143.5983  160.0661 C.3     1  UNL1        0.0944
     20 N         141.3005  143.7665  161.1452 N.3     1  UNL1       -0.2637
     21 C         141.5123  144.4429  162.4672 C.3     1  UNL1        0.0992
     22 C         140.2226  144.3823  163.2308 C.ar    1  UNL1       -0.0088
     23 C         139.8365  144.8849  164.5903 C.ar    1  UNL1       -0.0032
     24 C         138.4416  144.6737  165.0997 C.ar    1  UNL1       -0.0003
     25 C         137.4328  143.9598  164.2497 C.ar    1  UNL1       -0.0003
     26 C         137.8188  143.4572  162.8902 C.ar    1  UNL1       -0.0032
     27 C         139.2137  143.6685  162.3807 C.ar    1  UNL1       -0.0088
     28 C         139.8799  143.2879  161.0918 C.3     1  UNL1        0.0992
@<TRIPOS>BOND
     1     1     2    2
     2     2     3   am
     3     3    18    1
     4    18    19    1
     5    19    20    1
     6    20    21    1
     7    21    22    1
     8    22    23   ar
     9    23    24   ar
    10    24    25   ar
    11    25    26   ar
    12    26    27   ar
    13    27    28    1
    14     3     4    1
    15     4     5    1
    16     5     6    1
    17     6     7    1
    18     7     8   ar
    19     8     9   ar
    20     9    10   ar
    21    10    11   ar
    22    11    13    1
    23    13    14    1
    24    14    15    1
    25    14    16    1
    26    14    17    1
    27    11    12   ar
    28     6     2   am
    29    12     7   ar
    30    28    20    1
    31    27    22   ar
