@<TRIPOS>MOLECULE
*****
 32 34 0 0 0
SMALL
GASTEIGER

@<TRIPOS>ATOM
      1 N         142.0169  141.8108  161.6561 N.3     1  UNL1       -0.2673
      2 C         140.5337  141.7160  161.4534 C.3     1  UNL1        0.1035
      3 C         139.7555  140.6159  162.1122 C.3     1  UNL1        0.1470
      4 C         138.9772  139.5157  162.7711 C.3     1  UNL1        0.1035
      5 N         139.6821  138.5104  163.6326 N.3     1  UNL1       -0.2684
      6 C         141.1653  138.6052  163.8354 C.3     1  UNL1        0.1035
      7 C         141.9436  139.7054  163.1766 C.3     1  UNL1        0.1470
      8 C         142.7218  140.8055  162.5177 C.3     1  UNL1        0.1035
      9 O         140.4604  139.6106  162.9738 O.3     1  UNL1       -0.3530
     10 C         142.7951  142.9109  160.9973 C.3     1  UNL1        0.0913
     11 C         142.0762  143.9944  160.2496 C.3     1  UNL1        0.1084
     12 N         141.7398  145.2842  160.9375 N.3     1  UNL1       -0.1819
     13 H         142.5070  145.4845  161.5791 H       1  UNL1        0.1485
     14 S         140.4711  145.4036  161.7288 S.O2    1  UNL1        0.0408
     15 O         139.6786  145.4228  160.4554 O.2     1  UNL1       -0.1575
     16 O         141.2636  145.3843  163.0022 O.2     1  UNL1       -0.1575
     17 C         139.2024  145.5229  162.5201 C.3     1  UNL1        0.1688
     18 C         138.4786  144.2876  162.9677 C.3     1  UNL1        0.0270
     19 C         138.5638  144.9618  165.4753 C.3     1  UNL1        0.0001
     20 C         137.9082  144.2130  164.3530 C.3     1  UNL1        0.0019
     21 C         138.9039  137.4103  164.2915 C.3     1  UNL1        0.0761
     22 C         138.6425  137.4567  165.7678 C.3     1  UNL1        0.0646
     23 C         138.0303  138.6801  166.3830 C.3     1  UNL1        0.2068
     24 O         138.7968  139.4712  167.4012 O.3     1  UNL1       -0.4754
     25 C         139.9840  140.2853  166.9798 C.ar    1  UNL1        0.1386
     26 C         141.3506  139.9397  167.4925 C.ar    1  UNL1        0.0376
     27 C         142.5379  140.7538  167.0711 C.ar    1  UNL1        0.0134
     28 C         142.3586  141.9136  166.1370 C.ar    1  UNL1        0.0686
     29 C         140.9919  142.2594  165.6243 C.ar    1  UNL1        0.0134
     30 C         139.8047  141.4452  166.0457 C.ar    1  UNL1        0.0376
     31 C         143.5458  142.7278  165.7156 C.1     1  UNL1        0.1004
     32 N         144.7331  143.5420  165.2942 N.1     1  UNL1       -0.1908
@<TRIPOS>BOND
     1    19    20    1
     2    20    18    1
     3    18    17    1
     4    17    14    1
     5    14    15    2
     6    14    16    2
     7    14    12    1
     8    12    11    1
     9    11    10    1
    10    10     1    1
    11     1     2    1
    12     2     3    1
    13     3     4    1
    14     4     5    1
    15     5    21    1
    16    21    22    1
    17    22    23    1
    18    23    24    1
    19    24    25    1
    20    25    26   ar
    21    26    27   ar
    22    27    28   ar
    23    28    31    1
    24    31    32    3
    25    28    29   ar
    26    29    30   ar
    27     5     6    1
    28     6     7    1
    29     7     8    1
    30     7     9    1
    31     8     1    1
    32     9     3    1
    33    30    25   ar
    34    12    13    1
@<TRIPOS>MOLECULE
*****
 32 34 0 0 0
SMALL
GASTEIGER

@<TRIPOS>ATOM
      1 N         138.7369  143.8732  162.6786 N.3     1  UNL1       -0.2673
      2 C         139.1499  142.8226  161.6910 C.3     1  UNL1        0.1035
      3 C         139.1814  141.3798  162.0999 C.3     1  UNL1        0.1470
      4 C         139.2128  139.9369  162.5089 C.3     1  UNL1        0.1035
      5 N         138.8314  139.5447  163.9055 N.3     1  UNL1       -0.2684
      6 C         138.4185  140.5954  164.8932 C.3     1  UNL1        0.1035
      7 C         138.3870  142.0382  164.4842 C.3     1  UNL1        0.1470
      8 C         138.3555  143.4811  164.0753 C.3     1  UNL1        0.1035
      9 O         138.7999  140.9876  163.4966 O.3     1  UNL1       -0.3530
     10 C         138.7054  145.3161  162.2697 C.3     1  UNL1        0.0913
     11 C         139.9798  146.0227  161.9138 C.3     1  UNL1        0.1084
     12 N         141.1521  145.9713  162.8482 N.3     1  UNL1       -0.1819
     13 H         141.7921  146.7107  162.5586 H       1  UNL1        0.1485
     14 S         141.9647  144.7157  162.9635 S.O2    1  UNL1        0.0408
     15 O         142.3078  144.8039  161.5060 O.2     1  UNL1       -0.1575
     16 O         141.6216  144.6275  164.4210 O.2     1  UNL1       -0.1575
     17 C         142.7773  143.4602  163.0788 C.3     1  UNL1        0.1688
     18 C         144.2755  143.5323  163.0628 C.3     1  UNL1        0.0270
     19 C         145.7650  141.5100  163.7272 C.3     1  UNL1        0.0001
     20 C         145.0802  142.3281  162.6728 C.3     1  UNL1        0.0019
     21 C         138.8629  138.1019  164.3145 C.3     1  UNL1        0.0761
     22 C         140.1209  137.5089  164.8763 C.3     1  UNL1        0.0646
     23 C         141.3901  138.3084  164.8808 C.3     1  UNL1        0.2068
     24 O         142.0887  138.5991  166.1760 O.3     1  UNL1       -0.4754
     25 C         141.7027  139.8035  166.9825 C.ar    1  UNL1        0.1386
     26 C         140.4048  139.8181  167.7343 C.ar    1  UNL1        0.0376
     27 C         140.0188  141.0225  168.5408 C.ar    1  UNL1        0.0134
     28 C         140.9306  142.2122  168.5955 C.ar    1  UNL1        0.0686
     29 C         142.2286  142.1976  167.8437 C.ar    1  UNL1        0.0134
     30 C         142.6146  140.9933  167.0372 C.ar    1  UNL1        0.0376
     31 C         140.5446  143.4166  169.4021 C.1     1  UNL1        0.1004
     32 N         140.1585  144.6209  170.2086 N.1     1  UNL1       -0.1908
@<TRIPOS>BOND
     1    19    20    1
     2    20    18    1
     3    18    17    1
     4    17    14    1
     5    14    15    2
     6    14    16    2
     7    14    12    1
     8    12    11    1
     9    11    10    1
    10    10     1    1
    11     1     2    1
    12     2     3    1
    13     3     4    1
    14     4     5    1
    15     5    21    1
    16    21    22    1
    17    22    23    1
    18    23    24    1
    19    24    25    1
    20    25    26   ar
    21    26    27   ar
    22    27    28   ar
    23    28    31    1
    24    31    32    3
    25    28    29   ar
    26    29    30   ar
    27     5     6    1
    28     6     7    1
    29     7     8    1
    30     7     9    1
    31     8     1    1
    32     9     3    1
    33    30    25   ar
    34    12    13    1
@<TRIPOS>MOLECULE
*****
 32 34 0 0 0
SMALL
GASTEIGER

@<TRIPOS>ATOM
      1 N         138.6209  141.0945  161.5675 N.3     1  UNL1       -0.2673
      2 C         138.0774  142.1620  162.4703 C.3     1  UNL1        0.1035
      3 C         138.9873  143.2292  163.0024 C.3     1  UNL1        0.1470
      4 C         139.8972  144.2965  163.5344 C.3     1  UNL1        0.1035
      5 N         141.3506  144.2963  163.1636 N.3     1  UNL1       -0.2684
      6 C         141.8941  143.2288  162.2608 C.3     1  UNL1        0.1035
      7 C         140.9842  142.1616  161.7288 C.3     1  UNL1        0.1470
      8 C         140.0743  141.0943  161.1968 C.3     1  UNL1        0.1035
      9 O         140.4407  143.2290  162.6316 O.3     1  UNL1       -0.3530
     10 C         137.7110  140.0273  161.0355 C.3     1  UNL1        0.0913
     11 C         138.0421  138.5810  161.2559 C.3     1  UNL1        0.1084
     12 N         138.2111  138.0543  162.6502 N.3     1  UNL1       -0.1819
     13 H         137.9065  138.7938  163.2832 H       1  UNL1        0.1485
     14 S         139.5623  137.6075  163.1245 S.O2    1  UNL1        0.0408
     15 O         140.0741  137.6596  161.7156 O.2     1  UNL1       -0.1575
     16 O         139.0504  137.5555  164.5335 O.2     1  UNL1       -0.1575
     17 C         140.9133  137.1608  163.5989 C.3     1  UNL1        0.1688
     18 C         141.9237  138.1747  164.0474 C.3     1  UNL1        0.0270
     19 C         143.7392  138.5796  165.8612 C.3     1  UNL1        0.0001
     20 C         142.3243  138.2464  165.4912 C.3     1  UNL1        0.0019
     21 C         142.2605  145.3635  163.6956 C.3     1  UNL1        0.0761
     22 C         143.7030  145.0532  163.9657 C.3     1  UNL1        0.0646
     23 C         144.0746  144.1376  165.0942 C.3     1  UNL1        0.2068
     24 O         143.6388  142.7024  165.0701 O.3     1  UNL1       -0.4754
     25 C         142.6740  142.1942  166.1002 C.ar    1  UNL1        0.1386
     26 C         141.3127  141.7214  165.6841 C.ar    1  UNL1        0.0376
     27 C         140.3480  141.2132  166.7141 C.ar    1  UNL1        0.0134
     28 C         140.7445  141.1779  168.1603 C.ar    1  UNL1        0.0686
     29 C         142.1059  141.6508  168.5765 C.ar    1  UNL1        0.0134
     30 C         143.0706  142.1590  167.5464 C.ar    1  UNL1        0.0376
     31 C         139.7797  140.6698  169.1903 C.1     1  UNL1        0.1004
     32 N         138.8150  140.1616  170.2204 N.1     1  UNL1       -0.1908
@<TRIPOS>BOND
     1    19    20    1
     2    20    18    1
     3    18    17    1
     4    17    14    1
     5    14    15    2
     6    14    16    2
     7    14    12    1
     8    12    11    1
     9    11    10    1
    10    10     1    1
    11     1     2    1
    12     2     3    1
    13     3     4    1
    14     4     5    1
    15     5    21    1
    16    21    22    1
    17    22    23    1
    18    23    24    1
    19    24    25    1
    20    25    26   ar
    21    26    27   ar
    22    27    28   ar
    23    28    31    1
    24    31    32    3
    25    28    29   ar
    26    29    30   ar
    27     5     6    1
    28     6     7    1
    29     7     8    1
    30     7     9    1
    31     8     1    1
    32     9     3    1
    33    30    25   ar
    34    12    13    1
@<TRIPOS>MOLECULE
*****
 32 34 0 0 0
SMALL
GASTEIGER

@<TRIPOS>ATOM
      1 N         139.8424  142.5419  160.3643 N.3     1  UNL1       -0.2673
      2 C         138.4449  142.2044  160.7918 C.3     1  UNL1        0.1035
      3 C         138.1893  140.9819  161.6226 C.3     1  UNL1        0.1470
      4 C         137.9337  139.7595  162.4534 C.3     1  UNL1        0.1035
      5 N         139.0756  138.8745  162.8568 N.3     1  UNL1       -0.2684
      6 C         140.4732  139.2121  162.4293 C.3     1  UNL1        0.1035
      7 C         140.7288  140.4345  161.5985 C.3     1  UNL1        0.1470
      8 C         140.9844  141.6570  160.7677 C.3     1  UNL1        0.1035
      9 O         139.3312  140.0970  162.0260 O.3     1  UNL1       -0.3530
     10 C         140.0980  143.7644  159.5335 C.3     1  UNL1        0.0913
     11 C         140.2806  145.0973  160.1967 C.3     1  UNL1        0.1084
     12 N         141.5688  145.4171  160.8956 N.3     1  UNL1       -0.1819
     13 H         142.3022  144.8971  160.4137 H       1  UNL1        0.1485
     14 S         141.7208  145.1248  162.3590 S.O2    1  UNL1        0.0408
     15 O         143.1051  144.6032  162.1111 O.2     1  UNL1       -0.1575
     16 O         140.3364  145.6463  162.6069 O.2     1  UNL1       -0.1575
     17 C         141.8727  144.8325  163.8224 C.3     1  UNL1        0.1688
     18 C         141.4078  143.5185  164.3770 C.3     1  UNL1        0.0270
     19 C         139.0175  142.6588  164.9222 C.3     1  UNL1        0.0001
     20 C         140.2231  143.4693  165.2957 C.3     1  UNL1        0.0019
     21 C         138.8200  137.6521  163.6876 C.3     1  UNL1        0.0761
     22 C         138.9003  137.7316  165.1833 C.3     1  UNL1        0.0646
     23 C         138.6076  139.0260  165.8824 C.3     1  UNL1        0.2068
     24 O         138.6051  139.0851  167.3813 O.3     1  UNL1       -0.4754
     25 C         139.5278  140.0271  168.0963 C.ar    1  UNL1        0.1386
     26 C         140.7600  140.5360  167.4089 C.ar    1  UNL1        0.0376
     27 C         141.6828  141.4780  168.1239 C.ar    1  UNL1        0.0134
     28 C         141.3732  141.9111  169.5262 C.ar    1  UNL1        0.0686
     29 C         140.1409  141.4022  170.2136 C.ar    1  UNL1        0.0134
     30 C         139.2182  140.4602  169.4987 C.ar    1  UNL1        0.0376
     31 C         142.2960  142.8531  170.2412 C.1     1  UNL1        0.1004
     32 N         143.2187  143.7951  170.9562 N.1     1  UNL1       -0.1908
@<TRIPOS>BOND
     1    19    20    1
     2    20    18    1
     3    18    17    1
     4    17    14    1
     5    14    15    2
     6    14    16    2
     7    14    12    1
     8    12    11    1
     9    11    10    1
    10    10     1    1
    11     1     2    1
    12     2     3    1
    13     3     4    1
    14     4     5    1
    15     5    21    1
    16    21    22    1
    17    22    23    1
    18    23    24    1
    19    24    25    1
    20    25    26   ar
    21    26    27   ar
    22    27    28   ar
    23    28    31    1
    24    31    32    3
    25    28    29   ar
    26    29    30   ar
    27     5     6    1
    28     6     7    1
    29     7     8    1
    30     7     9    1
    31     8     1    1
    32     9     3    1
    33    30    25   ar
    34    12    13    1
@<TRIPOS>MOLECULE
*****
 32 34 0 0 0
SMALL
GASTEIGER

@<TRIPOS>ATOM
      1 N         142.3544  142.1667  159.9321 N.3     1  UNL1       -0.2673
      2 C         141.1154  141.3818  159.6179 C.3     1  UNL1        0.1035
      3 C         140.7676  140.1714  160.4328 C.3     1  UNL1        0.1470
      4 C         140.4197  138.9611  161.2478 C.3     1  UNL1        0.1035
      5 N         141.3108  138.5358  162.3769 N.3     1  UNL1       -0.2684
      6 C         142.5498  139.3207  162.6910 C.3     1  UNL1        0.1035
      7 C         142.8977  140.5310  161.8761 C.3     1  UNL1        0.1470
      8 C         143.2455  141.7414  161.0611 C.3     1  UNL1        0.1035
      9 O         141.6587  139.7461  161.5619 O.3     1  UNL1       -0.3530
     10 C         142.7022  143.3771  159.1171 C.3     1  UNL1        0.0913
     11 C         141.7982  144.5740  159.1284 C.3     1  UNL1        0.1084
     12 N         141.6346  145.3784  160.3838 N.3     1  UNL1       -0.1819
     13 H         142.5727  145.5663  160.7375 H       1  UNL1        0.1485
     14 S         140.8420  144.8254  161.5310 S.O2    1  UNL1        0.0408
     15 O         139.6047  144.8401  160.6833 O.2     1  UNL1       -0.1575
     16 O         142.0793  144.8107  162.3788 O.2     1  UNL1       -0.1575
     17 C         140.0494  144.2724  162.6782 C.3     1  UNL1        0.1688
     18 C         140.1687  144.8911  164.0395 C.3     1  UNL1        0.0270
     19 C         137.7562  144.1147  164.6110 C.3     1  UNL1        0.0001
     20 C         139.0492  144.7506  165.0278 C.3     1  UNL1        0.0019
     21 C         140.9630  137.3254  163.1918 C.3     1  UNL1        0.0761
     22 C         140.2596  137.4837  164.5071 C.3     1  UNL1        0.0646
     23 C         139.0803  138.4036  164.6211 C.3     1  UNL1        0.2068
     24 O         139.2919  139.8656  164.8815 O.3     1  UNL1       -0.4754
     25 C         139.5425  140.3499  166.2789 C.ar    1  UNL1        0.1386
     26 C         139.0377  139.5585  167.4488 C.ar    1  UNL1        0.0376
     27 C         139.2884  140.0428  168.8462 C.ar    1  UNL1        0.0134
     28 C         140.0439  141.3184  169.0736 C.ar    1  UNL1        0.0686
     29 C         140.5488  142.1099  167.9037 C.ar    1  UNL1        0.0134
     30 C         140.2981  141.6257  166.5063 C.ar    1  UNL1        0.0376
     31 C         140.2945  141.8027  170.4710 C.1     1  UNL1        0.1004
     32 N         140.5452  142.2870  171.8684 N.1     1  UNL1       -0.1908
@<TRIPOS>BOND
     1    19    20    1
     2    20    18    1
     3    18    17    1
     4    17    14    1
     5    14    15    2
     6    14    16    2
     7    14    12    1
     8    12    11    1
     9    11    10    1
    10    10     1    1
    11     1     2    1
    12     2     3    1
    13     3     4    1
    14     4     5    1
    15     5    21    1
    16    21    22    1
    17    22    23    1
    18    23    24    1
    19    24    25    1
    20    25    26   ar
    21    26    27   ar
    22    27    28   ar
    23    28    31    1
    24    31    32    3
    25    28    29   ar
    26    29    30   ar
    27     5     6    1
    28     6     7    1
    29     7     8    1
    30     7     9    1
    31     8     1    1
    32     9     3    1
    33    30    25   ar
    34    12    13    1
@<TRIPOS>MOLECULE
*****
 32 34 0 0 0
SMALL
GASTEIGER

@<TRIPOS>ATOM
      1 N         140.0306  142.9818  160.2118 N.3     1  UNL1       -0.2673
      2 C         138.7386  142.2766  160.5006 C.3     1  UNL1        0.1035
      3 C         138.7496  140.9396  161.1805 C.3     1  UNL1        0.1470
      4 C         138.7606  139.6026  161.8603 C.3     1  UNL1        0.1035
      5 N         140.0636  138.9707  162.2513 N.3     1  UNL1       -0.2684
      6 C         141.3556  139.6758  161.9625 C.3     1  UNL1        0.1035
      7 C         141.3446  141.0129  161.2826 C.3     1  UNL1        0.1470
      8 C         141.3336  142.3499  160.6028 C.3     1  UNL1        0.1035
      9 O         140.0526  140.3077  161.5715 O.3     1  UNL1       -0.3530
     10 C         140.0196  144.3188  159.5319 C.3     1  UNL1        0.0913
     11 C         140.7826  145.4671  160.1230 C.3     1  UNL1        0.1084
     12 N         140.2434  146.1872  161.3233 N.3     1  UNL1       -0.1819
     13 H         140.9601  146.8522  161.6142 H       1  UNL1        0.1485
     14 S         139.8477  145.4143  162.5465 S.O2    1  UNL1        0.0408
     15 O         138.4014  145.5915  162.1906 O.2     1  UNL1       -0.1575
     16 O         141.2940  145.2371  162.9024 O.2     1  UNL1       -0.1575
     17 C         139.4520  144.6415  163.7696 C.3     1  UNL1        0.1688
     18 C         140.0104  143.2689  164.0028 C.3     1  UNL1        0.0270
     19 C         139.4972  141.0656  165.2802 C.3     1  UNL1        0.0001
     20 C         139.7196  142.5489  165.2862 C.3     1  UNL1        0.0019
     21 C         140.0746  137.6336  162.9312 C.3     1  UNL1        0.0761
     22 C         141.2753  137.2035  163.7206 C.3     1  UNL1        0.0646
     23 C         141.5622  137.8324  165.0519 C.3     1  UNL1        0.2068
     24 O         142.7623  138.7165  165.2206 O.3     1  UNL1       -0.4754
     25 C         142.8100  139.7100  166.3434 C.ar    1  UNL1        0.1386
     26 C         143.0555  141.1606  166.0514 C.ar    1  UNL1        0.0376
     27 C         143.1031  142.1541  167.1742 C.ar    1  UNL1        0.0134
     28 C         142.9053  141.6970  168.5891 C.ar    1  UNL1        0.0686
     29 C         142.6597  140.2462  168.8812 C.ar    1  UNL1        0.0134
     30 C         142.6121  139.2527  167.7584 C.ar    1  UNL1        0.0376
     31 C         142.9529  142.6905  169.7119 C.1     1  UNL1        0.1004
     32 N         143.0006  143.6840  170.8347 N.1     1  UNL1       -0.1908
@<TRIPOS>BOND
     1    19    20    1
     2    20    18    1
     3    18    17    1
     4    17    14    1
     5    14    15    2
     6    14    16    2
     7    14    12    1
     8    12    11    1
     9    11    10    1
    10    10     1    1
    11     1     2    1
    12     2     3    1
    13     3     4    1
    14     4     5    1
    15     5    21    1
    16    21    22    1
    17    22    23    1
    18    23    24    1
    19    24    25    1
    20    25    26   ar
    21    26    27   ar
    22    27    28   ar
    23    28    31    1
    24    31    32    3
    25    28    29   ar
    26    29    30   ar
    27     5     6    1
    28     6     7    1
    29     7     8    1
    30     7     9    1
    31     8     1    1
    32     9     3    1
    33    30    25   ar
    34    12    13    1
@<TRIPOS>MOLECULE
*****
 32 34 0 0 0
SMALL
GASTEIGER

@<TRIPOS>ATOM
      1 N         143.3514  139.9109  164.2797 N.3     1  UNL1       -0.2673
      2 C         142.0943  139.8689  163.4624 C.3     1  UNL1        0.1035
      3 C         141.7089  141.0473  162.6182 C.3     1  UNL1        0.1470
      4 C         141.3234  142.2258  161.7741 C.3     1  UNL1        0.1035
      5 N         142.1949  143.4463  161.7473 N.3     1  UNL1       -0.2684
      6 C         143.4519  143.4883  162.5646 C.3     1  UNL1        0.1035
      7 C         143.8374  142.3099  163.4088 C.3     1  UNL1        0.1470
      8 C         144.2229  141.1314  164.2529 C.3     1  UNL1        0.1035
      9 O         142.5804  142.2678  162.5914 O.3     1  UNL1       -0.3530
     10 C         143.7368  138.7324  165.1239 C.3     1  UNL1        0.0913
     11 C         143.2777  138.6487  166.5494 C.3     1  UNL1        0.1084
     12 N         142.2479  139.6107  167.0634 N.3     1  UNL1       -0.1819
     13 H         142.0692  140.2790  166.3138 H       1  UNL1        0.1485
     14 S         142.5220  140.4119  168.3016 S.O2    1  UNL1        0.0408
     15 O         142.8899  139.1552  169.0334 O.2     1  UNL1       -0.1575
     16 O         142.1542  141.6685  167.5699 O.2     1  UNL1       -0.1575
     17 C         142.7960  141.2131  169.5397 C.3     1  UNL1        0.1688
     18 C         142.0029  140.9602  170.7876 C.3     1  UNL1        0.0270
     19 C         139.8557  142.3046  170.2116 C.3     1  UNL1        0.0001
     20 C         140.9199  141.9150  171.1942 C.3     1  UNL1        0.0019
     21 C         141.8094  144.6248  160.9031 C.3     1  UNL1        0.0761
     22 C         140.3613  144.9474  160.6821 C.3     1  UNL1        0.0646
     23 C         139.6845  145.9801  161.5339 C.3     1  UNL1        0.2068
     24 O         138.5546  145.5838  162.4373 O.3     1  UNL1       -0.4754
     25 C         138.6817  144.3696  163.3090 C.ar    1  UNL1        0.1386
     26 C         137.7383  143.2171  163.1318 C.ar    1  UNL1        0.0376
     27 C         137.8654  142.0030  164.0035 C.ar    1  UNL1        0.0134
     28 C         138.9361  141.9414  165.0522 C.ar    1  UNL1        0.0686
     29 C         139.8796  143.0940  165.2294 C.ar    1  UNL1        0.0134
     30 C         139.7524  144.3081  164.3578 C.ar    1  UNL1        0.0376
     31 C         139.0632  140.7273  165.9239 C.1     1  UNL1        0.1004
     32 N         139.1904  139.5132  166.7955 N.1     1  UNL1       -0.1908
@<TRIPOS>BOND
     1    19    20    1
     2    20    18    1
     3    18    17    1
     4    17    14    1
     5    14    15    2
     6    14    16    2
     7    14    12    1
     8    12    11    1
     9    11    10    1
    10    10     1    1
    11     1     2    1
    12     2     3    1
    13     3     4    1
    14     4     5    1
    15     5    21    1
    16    21    22    1
    17    22    23    1
    18    23    24    1
    19    24    25    1
    20    25    26   ar
    21    26    27   ar
    22    27    28   ar
    23    28    31    1
    24    31    32    3
    25    28    29   ar
    26    29    30   ar
    27     5     6    1
    28     6     7    1
    29     7     8    1
    30     7     9    1
    31     8     1    1
    32     9     3    1
    33    30    25   ar
    34    12    13    1
@<TRIPOS>MOLECULE
*****
 32 34 0 0 0
SMALL
GASTEIGER

@<TRIPOS>ATOM
      1 N         143.4259  142.4802  162.8520 N.3     1  UNL1       -0.2673
      2 C         142.5605  141.2712  163.0509 C.3     1  UNL1        0.1035
      3 C         142.2112  140.8188  164.4377 C.3     1  UNL1        0.1470
      4 C         141.8619  140.3663  165.8245 C.3     1  UNL1        0.1035
      5 N         142.3780  141.1228  167.0125 N.3     1  UNL1       -0.2684
      6 C         143.2433  142.3318  166.8137 C.3     1  UNL1        0.1035
      7 C         143.5926  142.7842  165.4268 C.3     1  UNL1        0.1470
      8 C         143.9419  143.2367  164.0400 C.3     1  UNL1        0.1035
      9 O         142.7273  141.5753  165.6257 O.3     1  UNL1       -0.3530
     10 C         143.7752  142.9326  161.4652 C.3     1  UNL1        0.0913
     11 C         142.7385  143.5994  160.6104 C.3     1  UNL1        0.1084
     12 N         142.1411  144.9070  161.0388 N.3     1  UNL1       -0.1819
     13 H         142.8203  145.3531  161.6553 H       1  UNL1        0.1485
     14 S         140.8240  144.9306  161.7562 S.O2    1  UNL1        0.0408
     15 O         141.4792  145.5820  162.9378 O.2     1  UNL1       -0.1575
     16 O         140.1688  144.2792  160.5746 O.2     1  UNL1       -0.1575
     17 C         139.5069  144.9542  162.4735 C.3     1  UNL1        0.1688
     18 C         139.4672  144.8823  163.9713 C.3     1  UNL1        0.0270
     19 C         139.8045  143.4815  166.1332 C.3     1  UNL1        0.0001
     20 C         139.5295  143.5514  164.6603 C.3     1  UNL1        0.0019
     21 C         142.0287  140.6704  168.3993 C.3     1  UNL1        0.0761
     22 C         140.9310  139.6696  168.6075 C.3     1  UNL1        0.0646
     23 C         139.4970  140.1044  168.5404 C.3     1  UNL1        0.2068
     24 O         138.4874  139.2523  167.8299 O.3     1  UNL1       -0.4754
     25 C         138.5744  139.0681  166.3438 C.ar    1  UNL1        0.1386
     26 C         138.9827  137.7415  165.7752 C.ar    1  UNL1        0.0376
     27 C         139.0697  137.5573  164.2891 C.ar    1  UNL1        0.0134
     28 C         138.7485  138.6996  163.3716 C.ar    1  UNL1        0.0686
     29 C         138.3402  140.0263  163.9403 C.ar    1  UNL1        0.0134
     30 C         138.2532  140.2105  165.4264 C.ar    1  UNL1        0.0376
     31 C         138.8355  138.5154  161.8855 C.1     1  UNL1        0.1004
     32 N         138.9226  138.3312  160.3994 N.1     1  UNL1       -0.1908
@<TRIPOS>BOND
     1    19    20    1
     2    20    18    1
     3    18    17    1
     4    17    14    1
     5    14    15    2
     6    14    16    2
     7    14    12    1
     8    12    11    1
     9    11    10    1
    10    10     1    1
    11     1     2    1
    12     2     3    1
    13     3     4    1
    14     4     5    1
    15     5    21    1
    16    21    22    1
    17    22    23    1
    18    23    24    1
    19    24    25    1
    20    25    26   ar
    21    26    27   ar
    22    27    28   ar
    23    28    31    1
    24    31    32    3
    25    28    29   ar
    26    29    30   ar
    27     5     6    1
    28     6     7    1
    29     7     8    1
    30     7     9    1
    31     8     1    1
    32     9     3    1
    33    30    25   ar
    34    12    13    1
@<TRIPOS>MOLECULE
*****
 32 34 0 0 0
SMALL
GASTEIGER

@<TRIPOS>ATOM
      1 N         139.5862  143.8725  163.2540 N.3     1  UNL1       -0.2673
      2 C         140.0913  144.4160  164.5576 C.3     1  UNL1        0.1035
      3 C         140.1885  143.5199  165.7565 C.3     1  UNL1        0.1470
      4 C         140.2857  142.6238  166.9555 C.3     1  UNL1        0.1035
      5 N         139.8777  141.1842  166.8509 N.3     1  UNL1       -0.2684
      6 C         139.3725  140.6407  165.5473 C.3     1  UNL1        0.1035
      7 C         139.2754  141.5368  164.3483 C.3     1  UNL1        0.1470
      8 C         139.1782  142.4329  163.1494 C.3     1  UNL1        0.1035
      9 O         139.7805  142.0803  165.6519 O.3     1  UNL1       -0.3530
     10 C         139.4890  144.7686  162.0550 C.3     1  UNL1        0.0913
     11 C         140.4364  144.5895  160.9060 C.3     1  UNL1        0.1084
     12 N         141.9013  144.8520  161.0939 N.3     1  UNL1       -0.1819
     13 H         142.2704  145.1266  160.1836 H       1  UNL1        0.1485
     14 S         142.7968  143.7672  161.6150 S.O2    1  UNL1        0.0408
     15 O         143.6266  144.7941  162.3269 O.2     1  UNL1       -0.1575
     16 O         141.9670  142.7403  160.9031 O.2     1  UNL1       -0.1575
     17 C         143.6922  142.6825  162.1360 C.3     1  UNL1        0.1688
     18 C         144.8229  143.0230  163.0610 C.3     1  UNL1        0.0270
     19 C         143.8637  142.9234  165.4734 C.3     1  UNL1        0.0001
     20 C         144.8538  142.4546  164.4488 C.3     1  UNL1        0.0019
     21 C         139.9749  140.2880  168.0499 C.3     1  UNL1        0.0761
     22 C         141.3194  139.8662  168.5639 C.3     1  UNL1        0.0646
     23 C         142.5277  139.9758  167.6819 C.3     1  UNL1        0.2068
     24 O         143.0939  138.7493  167.0297 O.3     1  UNL1       -0.4754
     25 C         142.9902  138.5745  165.5435 C.ar    1  UNL1        0.1386
     26 C         144.0792  139.0896  164.6499 C.ar    1  UNL1        0.0376
     27 C         143.9755  138.9148  163.1638 C.ar    1  UNL1        0.0134
     28 C         142.7827  138.2248  162.5712 C.ar    1  UNL1        0.0686
     29 C         141.6936  137.7097  163.4648 C.ar    1  UNL1        0.0134
     30 C         141.7973  137.8845  164.9510 C.ar    1  UNL1        0.0376
     31 C         142.6790  138.0500  161.0850 C.1     1  UNL1        0.1004
     32 N         142.5752  137.8752  159.5989 N.1     1  UNL1       -0.1908
@<TRIPOS>BOND
     1    19    20    1
     2    20    18    1
     3    18    17    1
     4    17    14    1
     5    14    15    2
     6    14    16    2
     7    14    12    1
     8    12    11    1
     9    11    10    1
    10    10     1    1
    11     1     2    1
    12     2     3    1
    13     3     4    1
    14     4     5    1
    15     5    21    1
    16    21    22    1
    17    22    23    1
    18    23    24    1
    19    24    25    1
    20    25    26   ar
    21    26    27   ar
    22    27    28   ar
    23    28    31    1
    24    31    32    3
    25    28    29   ar
    26    29    30   ar
    27     5     6    1
    28     6     7    1
    29     7     8    1
    30     7     9    1
    31     8     1    1
    32     9     3    1
    33    30    25   ar
    34    12    13    1
