@<TRIPOS>MOLECULE
*****
 30 33 0 0 0
SMALL
GASTEIGER

@<TRIPOS>ATOM
      1 C         139.3311  139.6779  166.4296 C.ar    1  UNL1        0.1057
      2 C         139.2959  138.2794  165.8883 C.ar    1  UNL1        0.0199
      3 C         138.8625  138.0335  164.4735 C.ar    1  UNL1        0.0205
      4 C         138.4643  139.1860  163.6000 C.ar    1  UNL1        0.0826
      5 N         138.0310  138.9401  162.1852 N.ar    1  UNL1       -0.2438
      6 C         137.6328  140.0926  161.3116 C.ar    1  UNL1        0.1001
      7 C         137.6679  141.4911  161.8529 C.ar    1  UNL1        0.0353
      8 C         138.1013  141.7371  163.2677 C.ar    1  UNL1        0.0524
      9 C         138.4995  140.5845  164.1413 C.ar    1  UNL1        0.0324
     10 C         138.9329  140.8304  165.5561 C.ar    1  UNL1        0.0211
     11 S         139.7645  139.9238  167.8444 S.O2    1  UNL1        0.0054
     12 O         141.0246  140.5675  167.3465 O.2     1  UNL1       -0.1687
     13 O         138.5044  139.2801  168.3423 O.2     1  UNL1       -0.1687
     14 C         138.7629  140.3004  169.6761 C.3     1  UNL1        0.0240
     15 C         140.1979  140.1698  169.2592 C.3     1  UNL1        0.1151
     16 C         141.6329  140.0391  168.8424 C.3     1  UNL1        0.0240
     17 C         140.6313  140.4157  170.6740 C.3     1  UNL1        0.0240
     18 N         138.1365  143.1355  163.8090 N.pl3   1  UNL1       -0.2964
     19 H         137.4895  143.4135  164.4971 H       1  UNL1        0.1537
     20 C         139.1574  144.1106  163.3019 C.ar    1  UNL1        0.1569
     21 N         138.8993  145.2443  162.3543 N.ar    1  UNL1       -0.1313
     22 N         140.1980  145.9575  162.1201 N.ar    1  UNL1       -0.1291
     23 C         141.2587  145.2645  162.9232 C.ar    1  UNL1        0.1649
     24 N         142.7271  145.5254  163.0837 N.ar    1  UNL1       -0.3341
     25 C         143.5523  144.6450  163.9745 C.ar    1  UNL1        0.1035
     26 C         142.9092  143.5034  164.7049 C.ar    1  UNL1        0.1573
     27 F         143.7344  142.6230  165.5957 F       1  UNL1       -0.2026
     28 C         141.4408  143.2425  164.5444 C.ar    1  UNL1        0.0371
     29 C         140.6156  144.1231  163.6535 C.ar    1  UNL1        0.0714
     30 H         143.1492  146.2746  162.6043 H       1  UNL1        0.1675
@<TRIPOS>BOND
     1    14    15    1
     2    15    16    1
     3    15    17    1
     4    15    11    1
     5    11    12    2
     6    11    13    2
     7    11     1    1
     8     1     2   ar
     9     2     3   ar
    10     3     4   ar
    11     4     5   ar
    12     5     6   ar
    13     6     7   ar
    14     7     8   ar
    15     8    18    1
    16    18    20    1
    17    20    21   ar
    18    21    22   ar
    19    22    23   ar
    20    23    24   ar
    21    24    25   ar
    22    25    26   ar
    23    26    27    1
    24    26    28   ar
    25    28    29   ar
    26     8     9   ar
    27     9    10   ar
    28    10     1   ar
    29     9     4   ar
    30    29    20   ar
    31    29    23    1
    32    18    19    1
    33    24    30    1
@<TRIPOS>MOLECULE
*****
 30 33 0 0 0
SMALL
GASTEIGER

@<TRIPOS>ATOM
      1 C         141.5511  139.6077  166.2264 C.ar    1  UNL1        0.1057
      2 C         142.1019  138.3277  165.6715 C.ar    1  UNL1        0.0199
      3 C         141.5066  137.7305  164.4309 C.ar    1  UNL1        0.0205
      4 C         140.3605  138.4134  163.7453 C.ar    1  UNL1        0.0826
      5 N         139.7652  137.8162  162.5047 N.ar    1  UNL1       -0.2438
      6 C         138.6191  138.4991  161.8191 C.ar    1  UNL1        0.1001
      7 C         138.0683  139.7792  162.3741 C.ar    1  UNL1        0.0353
      8 C         138.6636  140.3764  163.6147 C.ar    1  UNL1        0.0524
      9 C         139.8097  139.6934  164.3003 C.ar    1  UNL1        0.0324
     10 C         140.4050  140.2906  165.5408 C.ar    1  UNL1        0.0211
     11 S         142.1464  140.2049  167.4670 S.O2    1  UNL1        0.0054
     12 O         143.0581  139.0211  167.5994 O.2     1  UNL1       -0.1687
     13 O         141.2348  141.3887  167.3346 O.2     1  UNL1       -0.1687
     14 C         142.9654  142.0937  167.9785 C.3     1  UNL1        0.0240
     15 C         142.7417  140.8020  168.7076 C.3     1  UNL1        0.1151
     16 C         142.5181  139.5104  169.4367 C.3     1  UNL1        0.0240
     17 C         143.3371  141.3992  169.9481 C.3     1  UNL1        0.0240
     18 N         138.1128  141.6564  164.1697 N.pl3   1  UNL1       -0.2964
     19 H         137.4955  141.6353  164.9363 H       1  UNL1        0.1537
     20 C         138.5024  142.9688  163.5565 C.ar    1  UNL1        0.1569
     21 N         137.6225  143.8442  162.7142 N.ar    1  UNL1       -0.1313
     22 N         138.4166  145.0526  162.3151 N.ar    1  UNL1       -0.1291
     23 C         139.7873  144.9240  162.9108 C.ar    1  UNL1        0.1649
     24 N         140.9940  145.8132  162.8538 N.ar    1  UNL1       -0.3341
     25 C         142.2536  145.4146  163.5639 C.ar    1  UNL1        0.1035
     26 C         142.3066  144.1267  164.3312 C.ar    1  UNL1        0.1573
     27 F         143.5662  143.7281  165.0413 F       1  UNL1       -0.2026
     28 C         141.1000  143.2375  164.3882 C.ar    1  UNL1        0.0371
     29 C         139.8403  143.6362  163.6780 C.ar    1  UNL1        0.0714
     30 H         140.9592  146.6585  162.3503 H       1  UNL1        0.1675
@<TRIPOS>BOND
     1    14    15    1
     2    15    16    1
     3    15    17    1
     4    15    11    1
     5    11    12    2
     6    11    13    2
     7    11     1    1
     8     1     2   ar
     9     2     3   ar
    10     3     4   ar
    11     4     5   ar
    12     5     6   ar
    13     6     7   ar
    14     7     8   ar
    15     8    18    1
    16    18    20    1
    17    20    21   ar
    18    21    22   ar
    19    22    23   ar
    20    23    24   ar
    21    24    25   ar
    22    25    26   ar
    23    26    27    1
    24    26    28   ar
    25    28    29   ar
    26     8     9   ar
    27     9    10   ar
    28    10     1   ar
    29     9     4   ar
    30    29    20   ar
    31    29    23    1
    32    18    19    1
    33    24    30    1
@<TRIPOS>MOLECULE
*****
 30 33 0 0 0
SMALL
GASTEIGER

@<TRIPOS>ATOM
      1 C         140.0095  140.0237  166.9046 C.ar    1  UNL1        0.1057
      2 C         138.8738  139.1020  166.5721 C.ar    1  UNL1        0.0199
      3 C         138.9336  138.2535  165.3365 C.ar    1  UNL1        0.0205
      4 C         140.1290  138.3268  164.4335 C.ar    1  UNL1        0.0826
      5 N         140.1887  137.4783  163.1979 N.ar    1  UNL1       -0.2438
      6 C         141.3842  137.5516  162.2949 C.ar    1  UNL1        0.1001
      7 C         142.5199  138.4733  162.6274 C.ar    1  UNL1        0.0353
      8 C         142.4602  139.3218  163.8629 C.ar    1  UNL1        0.0524
      9 C         141.2647  139.2485  164.7660 C.ar    1  UNL1        0.0324
     10 C         141.2050  140.0969  166.0015 C.ar    1  UNL1        0.0211
     11 S         139.9498  140.8721  168.1401 S.O2    1  UNL1        0.0054
     12 O         140.5351  142.0237  167.3776 O.2     1  UNL1       -0.1687
     13 O         139.3645  139.7206  168.9026 O.2     1  UNL1       -0.1687
     14 C         140.6128  142.8201  168.6555 C.3     1  UNL1        0.0240
     15 C         139.8901  141.7206  169.3756 C.3     1  UNL1        0.1151
     16 C         139.1673  140.6210  170.0958 C.3     1  UNL1        0.0240
     17 C         139.8304  142.5690  170.6112 C.3     1  UNL1        0.0240
     18 N         143.5959  140.2435  164.1954 N.pl3   1  UNL1       -0.2964
     19 H         144.2046  140.0266  164.9381 H       1  UNL1        0.1537
     20 C         143.8042  141.4957  163.3963 C.ar    1  UNL1        0.1569
     21 N         144.8911  141.7282  162.3889 N.ar    1  UNL1       -0.1313
     22 N         144.7208  143.1115  161.8342 N.ar    1  UNL1       -0.1291
     23 C         143.5287  143.7338  162.4988 C.ar    1  UNL1        0.1649
     24 N         142.8858  145.0808  162.3496 N.ar    1  UNL1       -0.3341
     25 C         141.6765  145.4293  163.1657 C.ar    1  UNL1        0.1035
     26 C         141.1100  144.4307  164.1311 C.ar    1  UNL1        0.1573
     27 F         139.9007  144.7791  164.9472 F       1  UNL1       -0.2026
     28 C         141.7529  143.0837  164.2803 C.ar    1  UNL1        0.0371
     29 C         142.9622  142.7353  163.4641 C.ar    1  UNL1        0.0714
     30 H         143.2576  145.7363  161.7160 H       1  UNL1        0.1675
@<TRIPOS>BOND
     1    14    15    1
     2    15    16    1
     3    15    17    1
     4    15    11    1
     5    11    12    2
     6    11    13    2
     7    11     1    1
     8     1     2   ar
     9     2     3   ar
    10     3     4   ar
    11     4     5   ar
    12     5     6   ar
    13     6     7   ar
    14     7     8   ar
    15     8    18    1
    16    18    20    1
    17    20    21   ar
    18    21    22   ar
    19    22    23   ar
    20    23    24   ar
    21    24    25   ar
    22    25    26   ar
    23    26    27    1
    24    26    28   ar
    25    28    29   ar
    26     8     9   ar
    27     9    10   ar
    28    10     1   ar
    29     9     4   ar
    30    29    20   ar
    31    29    23    1
    32    18    19    1
    33    24    30    1
@<TRIPOS>MOLECULE
*****
 30 33 0 0 0
SMALL
GASTEIGER

@<TRIPOS>ATOM
      1 C         142.6131  140.1476  166.7817 C.ar    1  UNL1        0.1057
      2 C         143.4064  138.9724  166.2922 C.ar    1  UNL1        0.0199
      3 C         144.2012  139.0796  165.0246 C.ar    1  UNL1        0.0205
      4 C         144.2028  140.3620  164.2465 C.ar    1  UNL1        0.0826
      5 N         144.9976  140.4692  162.9790 N.ar    1  UNL1       -0.2438
      6 C         144.9992  141.7516  162.2009 C.ar    1  UNL1        0.1001
      7 C         144.2059  142.9268  162.6904 C.ar    1  UNL1        0.0353
      8 C         143.4111  142.8196  163.9579 C.ar    1  UNL1        0.0524
      9 C         143.4095  141.5371  164.7360 C.ar    1  UNL1        0.0324
     10 C         142.6147  141.4299  166.0036 C.ar    1  UNL1        0.0211
     11 S         141.8183  140.0404  168.0492 S.O2    1  UNL1        0.0054
     12 O         142.8920  139.1823  168.6500 O.2     1  UNL1       -0.1687
     13 O         140.7445  140.8984  167.4485 O.2     1  UNL1       -0.1687
     14 C         139.7748  140.2848  168.5636 C.3     1  UNL1        0.0240
     15 C         141.0234  139.9331  169.3168 C.3     1  UNL1        0.1151
     16 C         142.2720  139.5815  170.0700 C.3     1  UNL1        0.0240
     17 C         140.2286  139.8259  170.5844 C.3     1  UNL1        0.0240
     18 N         142.6178  143.9948  164.4474 N.pl3   1  UNL1       -0.2964
     19 H         142.9084  144.4848  165.2504 H       1  UNL1        0.1537
     20 C         141.3817  144.4234  163.7136 C.ar    1  UNL1        0.1569
     21 N         141.2267  145.6775  162.9052 N.ar    1  UNL1       -0.1313
     22 N         139.8328  145.7024  162.3513 N.ar    1  UNL1       -0.1291
     23 C         139.1266  144.4638  162.8173 C.ar    1  UNL1        0.1649
     24 N         137.7356  143.9535  162.5838 N.ar    1  UNL1       -0.3341
     25 C         137.3018  142.6529  163.1921 C.ar    1  UNL1        0.1035
     26 C         138.2591  141.8624  164.0341 C.ar    1  UNL1        0.1573
     27 F         137.8253  140.5619  164.6424 F       1  UNL1       -0.2026
     28 C         139.6501  142.3727  164.2676 C.ar    1  UNL1        0.0371
     29 C         140.0839  143.6734  163.6592 C.ar    1  UNL1        0.0714
     30 H         137.1073  144.4723  162.0312 H       1  UNL1        0.1675
@<TRIPOS>BOND
     1    14    15    1
     2    15    16    1
     3    15    17    1
     4    15    11    1
     5    11    12    2
     6    11    13    2
     7    11     1    1
     8     1     2   ar
     9     2     3   ar
    10     3     4   ar
    11     4     5   ar
    12     5     6   ar
    13     6     7   ar
    14     7     8   ar
    15     8    18    1
    16    18    20    1
    17    20    21   ar
    18    21    22   ar
    19    22    23   ar
    20    23    24   ar
    21    24    25   ar
    22    25    26   ar
    23    26    27    1
    24    26    28   ar
    25    28    29   ar
    26     8     9   ar
    27     9    10   ar
    28    10     1   ar
    29     9     4   ar
    30    29    20   ar
    31    29    23    1
    32    18    19    1
    33    24    30    1
@<TRIPOS>MOLECULE
*****
 30 33 0 0 0
SMALL
GASTEIGER

@<TRIPOS>ATOM
      1 C         139.8927  140.4400  167.1629 C.ar    1  UNL1        0.1057
      2 C         138.8414  139.4388  166.7858 C.ar    1  UNL1        0.0199
      3 C         138.0598  139.6134  165.5175 C.ar    1  UNL1        0.0205
      4 C         138.3296  140.7893  164.6262 C.ar    1  UNL1        0.0826
      5 N         137.5480  140.9639  163.3579 N.ar    1  UNL1       -0.2438
      6 C         137.8178  142.1398  162.4666 C.ar    1  UNL1        0.1001
      7 C         138.8691  143.1412  162.8436 C.ar    1  UNL1        0.0353
      8 C         139.6507  142.9665  164.1119 C.ar    1  UNL1        0.0524
      9 C         139.3809  141.7906  165.0032 C.ar    1  UNL1        0.0324
     10 C         140.1624  141.6159  166.2716 C.ar    1  UNL1        0.0211
     11 S         140.6742  140.2654  168.4312 S.O2    1  UNL1        0.0054
     12 O         141.8957  140.8122  167.7538 O.2     1  UNL1       -0.1687
     13 O         139.4527  139.7186  169.1086 O.2     1  UNL1       -0.1687
     14 C         142.7295  140.0461  168.9085 C.3     1  UNL1        0.0240
     15 C         141.4558  140.0908  169.6996 C.3     1  UNL1        0.1151
     16 C         140.1821  140.1354  170.4906 C.3     1  UNL1        0.0240
     17 C         142.2373  139.9161  170.9679 C.3     1  UNL1        0.0240
     18 N         140.7019  143.9678  164.4890 N.pl3   1  UNL1       -0.2964
     19 H         140.5267  144.6192  165.2061 H       1  UNL1        0.1537
     20 C         142.0203  143.9766  163.7735 C.ar    1  UNL1        0.1569
     21 N         142.5205  145.0564  162.8602 N.ar    1  UNL1       -0.1313
     22 N         143.8793  144.6543  162.3679 N.ar    1  UNL1       -0.1291
     23 C         144.2187  143.3261  162.9769 C.ar    1  UNL1        0.1649
     24 N         145.4255  142.4440  162.8527 N.ar    1  UNL1       -0.3341
     25 C         145.4834  141.1431  163.5971 C.ar    1  UNL1        0.1035
     26 C         144.3345  140.7242  164.4658 C.ar    1  UNL1        0.1573
     27 F         144.3924  139.4234  165.2102 F       1  UNL1       -0.2026
     28 C         143.1277  141.6064  164.5900 C.ar    1  UNL1        0.0371
     29 C         143.0698  142.9073  163.8456 C.ar    1  UNL1        0.0714
     30 H         146.1796  142.7189  162.2826 H       1  UNL1        0.1675
@<TRIPOS>BOND
     1    14    15    1
     2    15    16    1
     3    15    17    1
     4    15    11    1
     5    11    12    2
     6    11    13    2
     7    11     1    1
     8     1     2   ar
     9     2     3   ar
    10     3     4   ar
    11     4     5   ar
    12     5     6   ar
    13     6     7   ar
    14     7     8   ar
    15     8    18    1
    16    18    20    1
    17    20    21   ar
    18    21    22   ar
    19    22    23   ar
    20    23    24   ar
    21    24    25   ar
    22    25    26   ar
    23    26    27    1
    24    26    28   ar
    25    28    29   ar
    26     8     9   ar
    27     9    10   ar
    28    10     1   ar
    29     9     4   ar
    30    29    20   ar
    31    29    23    1
    32    18    19    1
    33    24    30    1
@<TRIPOS>MOLECULE
*****
 30 33 0 0 0
SMALL
GASTEIGER

@<TRIPOS>ATOM
      1 C         142.9130  142.4611  166.3728 C.ar    1  UNL1        0.1057
      2 C         144.2141  143.0398  165.9016 C.ar    1  UNL1        0.0199
      3 C         144.2722  143.8027  164.6114 C.ar    1  UNL1        0.0205
      4 C         143.0291  143.9869  163.7924 C.ar    1  UNL1        0.0826
      5 N         143.0872  144.7498  162.5022 N.ar    1  UNL1       -0.2438
      6 C         141.8442  144.9340  161.6831 C.ar    1  UNL1        0.1001
      7 C         140.5430  144.3552  162.1543 C.ar    1  UNL1        0.0353
      8 C         140.4849  143.5923  163.4445 C.ar    1  UNL1        0.0524
      9 C         141.7280  143.4081  164.2635 C.ar    1  UNL1        0.0324
     10 C         141.6699  142.6452  165.5537 C.ar    1  UNL1        0.0211
     11 S         142.8549  141.6981  167.6629 S.O2    1  UNL1        0.0054
     12 O         143.7431  142.7207  168.3076 O.2     1  UNL1       -0.1687
     13 O         141.9666  140.6756  167.0183 O.2     1  UNL1       -0.1687
     14 C         142.2251  139.7529  168.2283 C.3     1  UNL1        0.0240
     15 C         142.7968  140.9352  168.9531 C.3     1  UNL1        0.1151
     16 C         143.3684  142.1175  169.6780 C.3     1  UNL1        0.0240
     17 C         142.7387  140.1723  170.2433 C.3     1  UNL1        0.0240
     18 N         139.1837  143.0135  163.9156 N.pl3   1  UNL1       -0.2964
     19 H         138.7369  143.3882  164.7088 H       1  UNL1        0.1537
     20 C         138.5634  141.8639  163.1782 C.ar    1  UNL1        0.1569
     21 N         137.4967  141.9627  162.1282 N.ar    1  UNL1       -0.1313
     22 N         137.1749  140.5736  161.6624 N.ar    1  UNL1       -0.1291
     23 C         138.0427  139.6164  162.4245 C.ar    1  UNL1        0.1649
     24 N         138.1624  138.1217  162.3864 N.ar    1  UNL1       -0.3341
     25 C         139.1401  137.4245  163.2851 C.ar    1  UNL1        0.1035
     26 C         139.9983  138.2220  164.2220 C.ar    1  UNL1        0.1573
     27 F         140.9761  137.5248  165.1207 F       1  UNL1       -0.2026
     28 C         139.8786  139.7167  164.2600 C.ar    1  UNL1        0.0371
     29 C         138.9008  140.4139  163.3613 C.ar    1  UNL1        0.0714
     30 H         137.5992  137.5983  161.7716 H       1  UNL1        0.1675
@<TRIPOS>BOND
     1    14    15    1
     2    15    16    1
     3    15    17    1
     4    15    11    1
     5    11    12    2
     6    11    13    2
     7    11     1    1
     8     1     2   ar
     9     2     3   ar
    10     3     4   ar
    11     4     5   ar
    12     5     6   ar
    13     6     7   ar
    14     7     8   ar
    15     8    18    1
    16    18    20    1
    17    20    21   ar
    18    21    22   ar
    19    22    23   ar
    20    23    24   ar
    21    24    25   ar
    22    25    26   ar
    23    26    27    1
    24    26    28   ar
    25    28    29   ar
    26     8     9   ar
    27     9    10   ar
    28    10     1   ar
    29     9     4   ar
    30    29    20   ar
    31    29    23    1
    32    18    19    1
    33    24    30    1
@<TRIPOS>MOLECULE
*****
 30 33 0 0 0
SMALL
GASTEIGER

@<TRIPOS>ATOM
      1 C         141.4804  142.1400  167.0330 C.ar    1  UNL1        0.1057
      2 C         142.9649  142.1081  167.2456 C.ar    1  UNL1        0.0199
      3 C         143.8823  142.7085  166.2220 C.ar    1  UNL1        0.0205
      4 C         143.3152  143.3409  164.9857 C.ar    1  UNL1        0.0826
      5 N         144.2326  143.9414  163.9620 N.ar    1  UNL1       -0.2438
      6 C         143.6655  144.5738  162.7258 C.ar    1  UNL1        0.1001
      7 C         142.1809  144.6057  162.5131 C.ar    1  UNL1        0.0353
      8 C         141.2636  144.0053  163.5367 C.ar    1  UNL1        0.0524
      9 C         141.8307  143.3729  164.7731 C.ar    1  UNL1        0.0324
     10 C         140.9134  142.7724  165.7967 C.ar    1  UNL1        0.0211
     11 S         140.5631  141.5396  168.0566 S.O2    1  UNL1        0.0054
     12 O         140.2036  142.9132  168.5403 O.2     1  UNL1       -0.1687
     13 O         140.9225  140.1659  167.5730 O.2     1  UNL1       -0.1687
     14 C         139.3102  139.8293  168.1286 C.3     1  UNL1        0.0240
     15 C         139.6457  140.9391  169.0803 C.3     1  UNL1        0.1151
     16 C         139.9812  142.0489  170.0320 C.3     1  UNL1        0.0240
     17 C         138.7283  140.3387  170.1039 C.3     1  UNL1        0.0240
     18 N         139.7791  144.0372  163.3241 N.pl3   1  UNL1       -0.2964
     19 H         139.2068  144.5657  163.9262 H       1  UNL1        0.1537
     20 C         139.1664  143.2641  162.1941 C.ar    1  UNL1        0.1569
     21 N         138.8462  143.8005  160.8304 N.ar    1  UNL1       -0.1313
     22 N         138.2483  142.6867  160.0228 N.ar    1  UNL1       -0.1291
     23 C         138.1991  141.4620  160.8875 C.ar    1  UNL1        0.1649
     24 N         137.7109  140.0679  160.6263 N.ar    1  UNL1       -0.3341
     25 C         137.7901  139.0307  161.7069 C.ar    1  UNL1        0.1035
     26 C         138.3575  139.3875  163.0489 C.ar    1  UNL1        0.1573
     27 F         138.4367  138.3504  164.1295 F       1  UNL1       -0.2026
     28 C         138.8457  140.7816  163.3101 C.ar    1  UNL1        0.0371
     29 C         138.7665  141.8188  162.2293 C.ar    1  UNL1        0.0714
     30 H         137.3385  139.8337  159.7455 H       1  UNL1        0.1675
@<TRIPOS>BOND
     1    14    15    1
     2    15    16    1
     3    15    17    1
     4    15    11    1
     5    11    12    2
     6    11    13    2
     7    11     1    1
     8     1     2   ar
     9     2     3   ar
    10     3     4   ar
    11     4     5   ar
    12     5     6   ar
    13     6     7   ar
    14     7     8   ar
    15     8    18    1
    16    18    20    1
    17    20    21   ar
    18    21    22   ar
    19    22    23   ar
    20    23    24   ar
    21    24    25   ar
    22    25    26   ar
    23    26    27    1
    24    26    28   ar
    25    28    29   ar
    26     8     9   ar
    27     9    10   ar
    28    10     1   ar
    29     9     4   ar
    30    29    20   ar
    31    29    23    1
    32    18    19    1
    33    24    30    1
@<TRIPOS>MOLECULE
*****
 30 33 0 0 0
SMALL
GASTEIGER

@<TRIPOS>ATOM
      1 C         142.2466  138.7824  163.5900 C.ar    1  UNL1        0.1057
      2 C         143.4453  138.9614  164.4737 C.ar    1  UNL1        0.0199
      3 C         143.2651  139.3318  165.9161 C.ar    1  UNL1        0.0205
      4 C         141.8862  139.5232  166.4746 C.ar    1  UNL1        0.0826
      5 N         141.7060  139.8936  167.9170 N.ar    1  UNL1       -0.2438
      6 C         140.3271  140.0850  168.4755 C.ar    1  UNL1        0.1001
      7 C         139.1284  139.9060  167.5917 C.ar    1  UNL1        0.0353
      8 C         139.3086  139.5356  166.1494 C.ar    1  UNL1        0.0524
      9 C         140.6875  139.3442  165.5909 C.ar    1  UNL1        0.0324
     10 C         140.8677  138.9738  164.1485 C.ar    1  UNL1        0.0211
     11 S         142.4268  138.4120  162.1476 S.O2    1  UNL1        0.0054
     12 O         141.3954  137.3330  162.2959 O.2     1  UNL1       -0.1687
     13 O         143.4582  139.4910  161.9994 O.2     1  UNL1       -0.1687
     14 C         141.1945  138.4589  160.4216 C.3     1  UNL1        0.0240
     15 C         142.6070  138.0416  160.7053 C.3     1  UNL1        0.1151
     16 C         144.0196  137.6242  160.9890 C.3     1  UNL1        0.0240
     17 C         142.7872  137.6712  159.2630 C.3     1  UNL1        0.0240
     18 N         138.1099  139.3566  165.2656 N.pl3   1  UNL1       -0.2964
     19 H         137.4063  138.7145  165.5145 H       1  UNL1        0.1537
     20 C         137.9832  140.1558  164.0026 C.ar    1  UNL1        0.1569
     21 N         137.8055  139.5991  162.6211 N.ar    1  UNL1       -0.1313
     22 N         137.7244  140.7513  161.6640 N.ar    1  UNL1       -0.1291
     23 C         137.8520  142.0201  162.4541 C.ar    1  UNL1        0.1649
     24 N         137.8432  143.4629  162.0441 N.ar    1  UNL1       -0.3341
     25 C         137.9944  144.5377  163.0794 C.ar    1  UNL1        0.1035
     26 C         138.1543  144.1696  164.5248 C.ar    1  UNL1        0.1573
     27 F         138.3054  145.2444  165.5601 F       1  UNL1       -0.2026
     28 C         138.1631  142.7268  164.9348 C.ar    1  UNL1        0.0371
     29 C         138.0119  141.6520  163.8994 C.ar    1  UNL1        0.0714
     30 H         137.7382  143.7045  161.0955 H       1  UNL1        0.1675
@<TRIPOS>BOND
     1    14    15    1
     2    15    16    1
     3    15    17    1
     4    15    11    1
     5    11    12    2
     6    11    13    2
     7    11     1    1
     8     1     2   ar
     9     2     3   ar
    10     3     4   ar
    11     4     5   ar
    12     5     6   ar
    13     6     7   ar
    14     7     8   ar
    15     8    18    1
    16    18    20    1
    17    20    21   ar
    18    21    22   ar
    19    22    23   ar
    20    23    24   ar
    21    24    25   ar
    22    25    26   ar
    23    26    27    1
    24    26    28   ar
    25    28    29   ar
    26     8     9   ar
    27     9    10   ar
    28    10     1   ar
    29     9     4   ar
    30    29    20   ar
    31    29    23    1
    32    18    19    1
    33    24    30    1
@<TRIPOS>MOLECULE
*****
 30 33 0 0 0
SMALL
GASTEIGER

@<TRIPOS>ATOM
      1 C         138.6997  141.3750  163.9465 C.ar    1  UNL1        0.1057
      2 C         137.7362  142.4438  164.3701 C.ar    1  UNL1        0.0199
      3 C         137.8260  143.8154  163.7694 C.ar    1  UNL1        0.0205
      4 C         138.8792  144.1181  162.7452 C.ar    1  UNL1        0.0826
      5 N         138.9689  145.4897  162.1445 N.ar    1  UNL1       -0.2438
      6 C         140.0221  145.7924  161.1203 C.ar    1  UNL1        0.1001
      7 C         140.9856  144.7236  160.6967 C.ar    1  UNL1        0.0353
      8 C         140.8959  143.3521  161.2974 C.ar    1  UNL1        0.0524
      9 C         139.8426  143.0494  162.3216 C.ar    1  UNL1        0.0324
     10 C         139.7529  141.6778  162.9223 C.ar    1  UNL1        0.0211
     11 S         138.6100  140.0035  164.5472 S.O2    1  UNL1        0.0054
     12 O         139.0385  140.5566  165.8740 O.2     1  UNL1       -0.1687
     13 O         138.1814  139.4504  163.2204 O.2     1  UNL1       -0.1687
     14 C         138.9473  138.0317  163.8412 C.3     1  UNL1        0.0240
     15 C         138.5202  138.6320  165.1479 C.3     1  UNL1        0.1151
     16 C         138.0932  139.2322  166.4546 C.3     1  UNL1        0.0240
     17 C         138.4305  137.2604  165.7486 C.3     1  UNL1        0.0240
     18 N         141.8593  142.2833  160.8738 N.pl3   1  UNL1       -0.2964
     19 H         141.6565  141.7190  160.0930 H       1  UNL1        0.1537
     20 C         143.1319  142.0743  161.6399 C.ar    1  UNL1        0.1569
     21 N         144.3732  142.9096  161.5321 N.ar    1  UNL1       -0.1313
     22 N         145.3951  142.3448  162.4739 N.ar    1  UNL1       -0.1291
     23 C         144.7853  141.1605  163.1637 C.ar    1  UNL1        0.1649
     24 N         145.3230  140.2128  164.1946 N.ar    1  UNL1       -0.3341
     25 C         144.4621  139.0980  164.7100 C.ar    1  UNL1        0.1035
     26 C         143.0633  138.9307  164.1945 C.ar    1  UNL1        0.1573
     27 F         142.2024  137.8159  164.7099 F       1  UNL1       -0.2026
     28 C         142.5256  139.8785  163.1637 C.ar    1  UNL1        0.0371
     29 C         143.3866  140.9934  162.6483 C.ar    1  UNL1        0.0714
     30 H         146.2410  140.3225  164.5328 H       1  UNL1        0.1675
@<TRIPOS>BOND
     1    14    15    1
     2    15    16    1
     3    15    17    1
     4    15    11    1
     5    11    12    2
     6    11    13    2
     7    11     1    1
     8     1     2   ar
     9     2     3   ar
    10     3     4   ar
    11     4     5   ar
    12     5     6   ar
    13     6     7   ar
    14     7     8   ar
    15     8    18    1
    16    18    20    1
    17    20    21   ar
    18    21    22   ar
    19    22    23   ar
    20    23    24   ar
    21    24    25   ar
    22    25    26   ar
    23    26    27    1
    24    26    28   ar
    25    28    29   ar
    26     8     9   ar
    27     9    10   ar
    28    10     1   ar
    29     9     4   ar
    30    29    20   ar
    31    29    23    1
    32    18    19    1
    33    24    30    1
