@<TRIPOS>MOLECULE
*****
 37 41 0 0 0
SMALL
GASTEIGER

@<TRIPOS>ATOM
      1 C         139.6267  140.8078  162.2823 C.3     1  UNL1        0.0419
      2 C         138.4660  140.6810  163.2238 C.3     1  UNL1        0.0741
      3 C         138.4809  140.5278  163.2554 C.3     1  UNL1        0.0904
      4 C         138.2487  140.8822  164.6943 C.3     1  UNL1        0.0386
      5 C         138.2455  139.8072  165.7404 C.3     1  UNL1        0.0594
      6 C         138.3247  138.4665  166.4084 C.3     1  UNL1        0.0174
      7 C         138.5908  137.4366  165.3508 C.3     1  UNL1        0.0174
      8 C         138.6762  138.1408  164.0291 C.3     1  UNL1        0.0594
      9 C         138.7097  139.0984  162.8625 C.3     1  UNL1        0.0386
     10 N         138.4627  139.6059  164.2699 N.3     1  UNL1       -0.2750
     11 C         138.0018  140.0932  160.0568 C.3     1  UNL1        0.0738
     12 C         138.2639  141.4031  160.7390 C.ar    1  UNL1        0.1433
     13 N         138.3518  142.7432  160.0709 N.ar    1  UNL1       -0.1337
     14 N         138.6264  143.7712  161.1281 N.ar    1  UNL1       -0.1337
     15 C         138.7081  143.0665  162.4497 C.ar    1  UNL1        0.1425
     16 N         138.4841  141.6029  162.2093 N.ar    1  UNL1       -0.3039
     17 C         138.9682  143.7120  163.7785 C.3     1  UNL1        0.0588
     18 C         140.3776  143.9290  164.2438 C.3     1  UNL1        0.0080
     19 C         137.8189  144.1405  164.6421 C.3     1  UNL1        0.0080
     20 C         141.0200  140.5400  162.7691 C.3     1  UNL1        0.1014
     21 C         141.9929  139.8080  161.8929 C.ar    1  UNL1        0.0251
     22 C         141.7746  138.4640  161.2638 C.ar    1  UNL1        0.0043
     23 C         143.0018  138.1170  160.4742 C.ar    1  UNL1        0.0072
     24 C         143.9786  139.2465  160.6153 C.ar    1  UNL1        0.0352
     25 S         143.3551  140.2917  161.4922 S.2     1  UNL1       -0.0892
     26 N         141.4405  141.0042  164.1321 N.am    1  UNL1       -0.3017
     27 C         141.8844  140.0064  165.1604 C.2     1  UNL1        0.2222
     28 O         141.9079  138.5444  164.8257 O.2     1  UNL1       -0.2751
     29 H         141.4251  141.9638  164.3518 H       1  UNL1        0.1497
     30 C         142.3049  140.4706  166.5233 C.3     1  UNL1        0.0769
     31 C         142.2543  139.5248  167.6864 C.3     1  UNL1        0.0147
     32 C         142.6748  139.9890  169.0495 C.3     1  UNL1        0.0671
     33 C         143.1458  141.3990  169.2493 C.3     1  UNL1        0.2640
     34 F         143.6616  142.6289  169.9359 F       1  UNL1       -0.2043
     35 F         143.2743  140.8803  170.6509 F       1  UNL1       -0.2043
     36 C         143.1964  142.3449  168.0862 C.3     1  UNL1        0.0671
     37 C         142.7760  141.8807  166.7232 C.3     1  UNL1        0.0147
@<TRIPOS>BOND
     1    11    12    1
     2    12    13   ar
     3    13    14   ar
     4    14    15   ar
     5    15    17    1
     6    17    18    1
     7    17    19    1
     8    15    16   ar
     9     3    16    1
    10     3     4    1
    11     5     4    1
    12     5     6    1
    13     6     7    1
    14     8     7    1
    15     8     9    1
    16     8    10    1
    17    10     2    1
    18     2     1    1
    19    20     1    1
    20    20    26    1
    21    26    27   am
    22    27    28    2
    23    27    30    1
    24    30    31    1
    25    31    32    1
    26    32    33    1
    27    33    34    1
    28    33    35    1
    29    33    36    1
    30    36    37    1
    31    20    21    1
    32    21    22   ar
    33    22    23   ar
    34    23    24   ar
    35    24    25   ar
    36    16    12   ar
    37     9     3    1
    38    37    30    1
    39    25    21   ar
    40    10     5    1
    41    26    29    1
@<TRIPOS>MOLECULE
*****
 37 41 0 0 0
SMALL
GASTEIGER

@<TRIPOS>ATOM
      1 C         140.0752  141.5844  162.8289 C.3     1  UNL1        0.0419
      2 C         138.7794  141.0964  163.4059 C.3     1  UNL1        0.0741
      3 C         138.8212  140.9458  163.4215 C.3     1  UNL1        0.0904
      4 C         138.1455  140.9786  164.7602 C.3     1  UNL1        0.0386
      5 C         138.1227  139.7491  165.6191 C.3     1  UNL1        0.0594
      6 C         138.3381  138.3487  166.1116 C.3     1  UNL1        0.0174
      7 C         139.1052  137.6010  165.0616 C.3     1  UNL1        0.0174
      8 C         139.3639  138.5393  163.9202 C.3     1  UNL1        0.0594
      9 C         139.4741  139.6835  162.9416 C.3     1  UNL1        0.0386
     10 N         138.7567  139.8669  164.2648 N.3     1  UNL1       -0.2750
     11 C         138.7393  144.0302  164.4845 C.3     1  UNL1        0.0738
     12 C         138.8063  143.5931  163.0511 C.ar    1  UNL1        0.1433
     13 N         138.8474  144.4970  161.8547 N.ar    1  UNL1       -0.1337
     14 N         138.9105  143.6379  160.6268 N.ar    1  UNL1       -0.1337
     15 C         138.9083  142.2031  161.0641 C.ar    1  UNL1        0.1425
     16 N         138.8439  142.1754  162.5625 N.ar    1  UNL1       -0.3039
     17 C         138.9613  141.0062  160.1616 C.3     1  UNL1        0.0588
     18 C         140.2452  140.6374  159.4794 C.3     1  UNL1        0.0080
     19 C         137.7302  140.1778  159.9413 C.3     1  UNL1        0.0080
     20 C         141.3198  141.5745  163.6659 C.3     1  UNL1        0.1014
     21 C         142.6569  141.3646  163.0194 C.ar    1  UNL1        0.0251
     22 C         143.0065  140.2738  162.0509 C.ar    1  UNL1        0.0043
     23 C         144.4448  140.4437  161.6608 C.ar    1  UNL1        0.0072
     24 C         144.9842  141.6395  162.3881 C.ar    1  UNL1        0.0352
     25 S         143.8793  142.2087  163.2278 S.2     1  UNL1       -0.0892
     26 N         141.2274  141.7746  165.1497 N.am    1  UNL1       -0.3017
     27 C         141.6820  140.6913  166.0824 C.2     1  UNL1        0.2222
     28 O         142.2289  139.4079  165.5313 O.2     1  UNL1       -0.2751
     29 H         140.8685  142.6170  165.5114 H       1  UNL1        0.1497
     30 C         141.5896  140.8915  167.5660 C.3     1  UNL1        0.0769
     31 C         140.6642  140.0382  168.3817 C.3     1  UNL1        0.0147
     32 C         140.5718  140.2383  169.8655 C.3     1  UNL1        0.0671
     33 C         141.4049  141.2917  170.5334 C.3     1  UNL1        0.2640
     34 F         141.9868  142.1526  171.6153 F       1  UNL1       -0.2043
     35 F         140.6815  140.7374  171.7249 F       1  UNL1       -0.2043
     36 C         142.3304  142.1450  169.7178 C.3     1  UNL1        0.0671
     37 C         142.4228  141.9449  168.2341 C.3     1  UNL1        0.0147
@<TRIPOS>BOND
     1    11    12    1
     2    12    13   ar
     3    13    14   ar
     4    14    15   ar
     5    15    17    1
     6    17    18    1
     7    17    19    1
     8    15    16   ar
     9     3    16    1
    10     3     4    1
    11     5     4    1
    12     5     6    1
    13     6     7    1
    14     8     7    1
    15     8     9    1
    16     8    10    1
    17    10     2    1
    18     2     1    1
    19    20     1    1
    20    20    26    1
    21    26    27   am
    22    27    28    2
    23    27    30    1
    24    30    31    1
    25    31    32    1
    26    32    33    1
    27    33    34    1
    28    33    35    1
    29    33    36    1
    30    36    37    1
    31    20    21    1
    32    21    22   ar
    33    22    23   ar
    34    23    24   ar
    35    24    25   ar
    36    16    12   ar
    37     9     3    1
    38    37    30    1
    39    25    21   ar
    40    10     5    1
    41    26    29    1
@<TRIPOS>MOLECULE
*****
 37 41 0 0 0
SMALL
GASTEIGER

@<TRIPOS>ATOM
      1 C         139.8778  141.2202  162.6625 C.3     1  UNL1        0.0419
      2 C         138.5773  140.8784  163.3272 C.3     1  UNL1        0.0741
      3 C         138.6033  140.7262  163.3560 C.3     1  UNL1        0.0904
      4 C         138.0943  140.9825  164.7435 C.3     1  UNL1        0.0386
      5 C         138.0324  139.8618  165.7386 C.3     1  UNL1        0.0594
      6 C         138.1439  138.5045  166.3674 C.3     1  UNL1        0.0174
      7 C         138.6958  137.5616  165.3397 C.3     1  UNL1        0.0174
      8 C         138.9253  138.3360  164.0757 C.3     1  UNL1        0.0594
      9 C         139.0502  139.3492  162.9635 C.3     1  UNL1        0.0386
     10 N         138.5153  139.7576  164.3222 N.3     1  UNL1       -0.2750
     11 C         138.5742  140.4112  160.1080 C.3     1  UNL1        0.0738
     12 C         138.6519  141.7022  160.8679 C.ar    1  UNL1        0.1433
     13 N         138.7299  143.0749  160.2684 N.ar    1  UNL1       -0.1337
     14 N         138.7915  144.0681  161.3907 N.ar    1  UNL1       -0.1337
     15 C         138.7515  143.3092  162.6840 C.ar    1  UNL1        0.1425
     16 N         138.6653  141.8470  162.3609 N.ar    1  UNL1       -0.3039
     17 C         138.7909  143.9075  164.0589 C.3     1  UNL1        0.0588
     18 C         140.1017  144.3210  164.6596 C.3     1  UNL1        0.0080
     19 C         137.5195  144.0923  164.8333 C.3     1  UNL1        0.0080
     20 C         141.1607  141.1310  163.4345 C.3     1  UNL1        0.1014
     21 C         142.4428  140.8116  162.7244 C.ar    1  UNL1        0.0251
     22 C         143.7542  141.5150  162.9131 C.ar    1  UNL1        0.0043
     23 C         144.7603  140.8708  162.0061 C.ar    1  UNL1        0.0072
     24 C         144.0708  139.7693  161.2568 C.ar    1  UNL1        0.0352
     25 S         142.6385  139.7327  161.7007 S.2     1  UNL1       -0.0892
     26 N         141.1617  141.3611  164.9168 N.am    1  UNL1       -0.3017
     27 C         141.6020  140.2683  165.8452 C.2     1  UNL1        0.2222
     28 O         142.0413  138.9453  165.2914 O.2     1  UNL1       -0.2751
     29 H         140.8734  142.2295  165.2804 H       1  UNL1        0.1497
     30 C         141.6030  140.4985  167.3274 C.3     1  UNL1        0.0769
     31 C         140.6193  141.4515  167.9391 C.3     1  UNL1        0.0147
     32 C         140.6203  141.6817  169.4214 C.3     1  UNL1        0.0671
     33 C         141.6050  140.9589  170.2919 C.3     1  UNL1        0.2640
     34 F         142.3363  140.5133  171.5234 F       1  UNL1       -0.2043
     35 F         140.8752  141.7571  171.3312 F       1  UNL1       -0.2043
     36 C         142.5887  140.0059  169.6802 C.3     1  UNL1        0.0671
     37 C         142.5877  139.7757  168.1980 C.3     1  UNL1        0.0147
@<TRIPOS>BOND
     1    11    12    1
     2    12    13   ar
     3    13    14   ar
     4    14    15   ar
     5    15    17    1
     6    17    18    1
     7    17    19    1
     8    15    16   ar
     9     3    16    1
    10     3     4    1
    11     5     4    1
    12     5     6    1
    13     6     7    1
    14     8     7    1
    15     8     9    1
    16     8    10    1
    17    10     2    1
    18     2     1    1
    19    20     1    1
    20    20    26    1
    21    26    27   am
    22    27    28    2
    23    27    30    1
    24    30    31    1
    25    31    32    1
    26    32    33    1
    27    33    34    1
    28    33    35    1
    29    33    36    1
    30    36    37    1
    31    20    21    1
    32    21    22   ar
    33    22    23   ar
    34    23    24   ar
    35    24    25   ar
    36    16    12   ar
    37     9     3    1
    38    37    30    1
    39    25    21   ar
    40    10     5    1
    41    26    29    1
@<TRIPOS>MOLECULE
*****
 37 41 0 0 0
SMALL
GASTEIGER

@<TRIPOS>ATOM
      1 C         140.1630  140.4985  165.9267 C.3     1  UNL1        0.0419
      2 C         141.2804  139.5068  166.0605 C.3     1  UNL1        0.0741
      3 C         141.3968  139.6060  166.0248 C.3     1  UNL1        0.0904
      4 C         141.9881  138.4942  165.2097 C.3     1  UNL1        0.0386
      5 C         143.2746  138.7095  164.4692 C.3     1  UNL1        0.0594
      6 C         144.5168  139.3493  163.9235 C.3     1  UNL1        0.0174
      7 C         144.5768  140.7573  164.4371 C.3     1  UNL1        0.0174
      8 C         143.3718  140.9877  165.3002 C.3     1  UNL1        0.0594
      9 C         142.0921  140.9330  166.0993 C.3     1  UNL1        0.0386
     10 N         142.5670  139.7221  165.3200 N.3     1  UNL1       -0.2750
     11 C         138.8790  137.7951  165.0095 C.3     1  UNL1        0.0738
     12 C         138.9529  138.5584  166.2987 C.ar    1  UNL1        0.1433
     13 N         137.8825  138.6233  167.3476 N.ar    1  UNL1       -0.1337
     14 N         138.3783  139.4958  168.4624 N.ar    1  UNL1       -0.1337
     15 C         139.7551  139.9701  168.1027 C.ar    1  UNL1        0.1425
     16 N         140.1102  139.3907  166.7654 N.ar    1  UNL1       -0.3039
     17 C         140.6242  140.8664  168.9341 C.3     1  UNL1        0.0588
     18 C         141.7750  140.2906  169.7048 C.3     1  UNL1        0.0080
     19 C         140.3425  142.3385  168.9949 C.3     1  UNL1        0.0080
     20 C         139.8259  141.0715  164.5821 C.3     1  UNL1        0.1014
     21 C         139.2163  142.4383  164.4807 C.ar    1  UNL1        0.0251
     22 C         139.5517  143.6195  165.3422 C.ar    1  UNL1        0.0043
     23 C         138.7068  144.7750  164.8938 C.ar    1  UNL1        0.0072
     24 C         137.8493  144.3079  163.7552 C.ar    1  UNL1        0.0352
     25 S         138.1641  142.8637  163.4999 S.2     1  UNL1       -0.0892
     26 N         140.0984  140.2778  163.3387 N.am    1  UNL1       -0.3017
     27 C         141.0861  140.7818  162.3286 C.2     1  UNL1        0.2222
     28 O         141.8012  142.0796  162.5617 O.2     1  UNL1       -0.2751
     29 H         139.6291  139.4260  163.1857 H       1  UNL1        0.1497
     30 C         141.3586  139.9881  161.0853 C.3     1  UNL1        0.0769
     31 C         142.7721  139.7320  160.6538 C.3     1  UNL1        0.0147
     32 C         143.0447  138.9383  159.4105 C.3     1  UNL1        0.0671
     33 C         141.9035  138.4007  158.5988 C.3     1  UNL1        0.2640
     34 F         141.1642  137.6883  157.5052 F       1  UNL1       -0.2043
     35 F         143.0604  137.8972  157.7875 F       1  UNL1       -0.2043
     36 C         140.4900  138.6569  159.0302 C.3     1  UNL1        0.0671
     37 C         140.2175  139.4506  160.2735 C.3     1  UNL1        0.0147
@<TRIPOS>BOND
     1    11    12    1
     2    12    13   ar
     3    13    14   ar
     4    14    15   ar
     5    15    17    1
     6    17    18    1
     7    17    19    1
     8    15    16   ar
     9     3    16    1
    10     3     4    1
    11     5     4    1
    12     5     6    1
    13     6     7    1
    14     8     7    1
    15     8     9    1
    16     8    10    1
    17    10     2    1
    18     2     1    1
    19    20     1    1
    20    20    26    1
    21    26    27   am
    22    27    28    2
    23    27    30    1
    24    30    31    1
    25    31    32    1
    26    32    33    1
    27    33    34    1
    28    33    35    1
    29    33    36    1
    30    36    37    1
    31    20    21    1
    32    21    22   ar
    33    22    23   ar
    34    23    24   ar
    35    24    25   ar
    36    16    12   ar
    37     9     3    1
    38    37    30    1
    39    25    21   ar
    40    10     5    1
    41    26    29    1
@<TRIPOS>MOLECULE
*****
 37 41 0 0 0
SMALL
GASTEIGER

@<TRIPOS>ATOM
      1 C         141.4392  142.4749  162.4914 C.3     1  UNL1        0.0419
      2 C         141.0535  143.8514  162.9459 C.3     1  UNL1        0.0741
      3 C         140.8980  143.8292  162.9498 C.3     1  UNL1        0.0904
      4 C         140.9071  144.5524  164.2639 C.3     1  UNL1        0.0386
      5 C         139.6246  144.7630  165.0129 C.3     1  UNL1        0.0594
      6 C         138.1729  144.7428  165.3900 C.3     1  UNL1        0.0174
      7 C         137.4221  144.0293  164.3050 C.3     1  UNL1        0.0174
      8 C         138.4098  143.6085  163.2574 C.3     1  UNL1        0.0594
      9 C         139.6066  143.3166  162.3847 C.3     1  UNL1        0.0386
     10 N         139.7710  144.0620  163.6949 N.3     1  UNL1       -0.2750
     11 C         143.8558  143.4569  164.2775 C.3     1  UNL1        0.0738
     12 C         143.5401  143.4475  162.8110 C.ar    1  UNL1        0.1433
     13 N         144.5284  143.2652  161.6974 N.ar    1  UNL1       -0.1337
     14 N         143.7796  143.3237  160.3991 N.ar    1  UNL1       -0.1337
     15 C         142.3286  143.5420  160.7101 C.ar    1  UNL1        0.1425
     16 N         142.1805  143.6186  162.2008 N.ar    1  UNL1       -0.3039
     17 C         141.2202  143.6627  159.7066 C.3     1  UNL1        0.0588
     18 C         140.6288  145.0068  159.4005 C.3     1  UNL1        0.0080
     19 C         140.7032  142.4394  159.0093 C.3     1  UNL1        0.0080
     20 C         141.1526  141.2892  163.3641 C.3     1  UNL1        0.1014
     21 C         140.7394  139.9860  162.7469 C.ar    1  UNL1        0.0251
     22 C         139.8049  139.8173  161.5858 C.ar    1  UNL1        0.0043
     23 C         139.6761  138.3497  161.3038 C.ar    1  UNL1        0.0072
     24 C         140.5311  137.6113  162.2906 C.ar    1  UNL1        0.0352
     25 S         141.1883  138.6226  163.1825 S.2     1  UNL1       -0.0892
     26 N         141.2792  141.4064  164.8542 N.am    1  UNL1       -0.3017
     27 C         140.0795  141.1900  165.7282 C.2     1  UNL1        0.2222
     28 O         138.7532  140.8562  165.1122 O.2     1  UNL1       -0.2751
     29 H         142.1497  141.6255  165.2586 H       1  UNL1        0.1497
     30 C         140.2062  141.3072  167.2182 C.3     1  UNL1        0.0769
     31 C         140.5040  142.6379  167.8432 C.3     1  UNL1        0.0147
     32 C         140.6306  142.7553  169.3333 C.3     1  UNL1        0.0671
     33 C         140.4595  141.5418  170.1983 C.3     1  UNL1        0.2640
     34 F         140.3824  140.6875  171.4288 F       1  UNL1       -0.2043
     35 F         140.7305  142.5758  171.2506 F       1  UNL1       -0.2043
     36 C         140.1617  140.2111  169.5733 C.3     1  UNL1        0.0671
     37 C         140.0350  140.0938  168.0833 C.3     1  UNL1        0.0147
@<TRIPOS>BOND
     1    11    12    1
     2    12    13   ar
     3    13    14   ar
     4    14    15   ar
     5    15    17    1
     6    17    18    1
     7    17    19    1
     8    15    16   ar
     9     3    16    1
    10     3     4    1
    11     5     4    1
    12     5     6    1
    13     6     7    1
    14     8     7    1
    15     8     9    1
    16     8    10    1
    17    10     2    1
    18     2     1    1
    19    20     1    1
    20    20    26    1
    21    26    27   am
    22    27    28    2
    23    27    30    1
    24    30    31    1
    25    31    32    1
    26    32    33    1
    27    33    34    1
    28    33    35    1
    29    33    36    1
    30    36    37    1
    31    20    21    1
    32    21    22   ar
    33    22    23   ar
    34    23    24   ar
    35    24    25   ar
    36    16    12   ar
    37     9     3    1
    38    37    30    1
    39    25    21   ar
    40    10     5    1
    41    26    29    1
@<TRIPOS>MOLECULE
*****
 37 41 0 0 0
SMALL
GASTEIGER

@<TRIPOS>ATOM
      1 C         141.2213  142.5484  162.2075 C.3     1  UNL1        0.0419
      2 C         140.8409  143.9196  162.6822 C.3     1  UNL1        0.0741
      3 C         140.6874  143.8936  162.7032 C.3     1  UNL1        0.0904
      4 C         140.8231  144.6219  164.0075 C.3     1  UNL1        0.0386
      5 C         139.6262  144.8037  164.8930 C.3     1  UNL1        0.0594
      6 C         138.2258  144.7492  165.4279 C.3     1  UNL1        0.0174
      7 C         137.3781  144.0132  164.4331 C.3     1  UNL1        0.0174
      8 C         138.2545  143.6128  163.2835 C.3     1  UNL1        0.0594
      9 C         139.3547  143.3470  162.2845 C.3     1  UNL1        0.0386
     10 N         139.6439  144.1014  163.5677 N.3     1  UNL1       -0.2750
     11 C         140.6311  143.4295  159.4735 C.3     1  UNL1        0.0738
     12 C         141.8585  143.4984  160.3330 C.ar    1  UNL1        0.1433
     13 N         143.2755  143.3661  159.8590 N.ar    1  UNL1       -0.1337
     14 N         144.1770  143.4976  161.0505 N.ar    1  UNL1       -0.1337
     15 C         143.3174  143.7112  162.2610 C.ar    1  UNL1        0.1425
     16 N         141.8844  143.7117  161.8176 N.ar    1  UNL1       -0.3039
     17 C         143.8050  143.8925  163.6679 C.3     1  UNL1        0.0588
     18 C         144.2169  142.6995  164.4785 C.3     1  UNL1        0.0080
     19 C         143.8807  145.2668  164.2643 C.3     1  UNL1        0.0080
     20 C         141.0398  141.3649  163.1108 C.3     1  UNL1        0.1014
     21 C         140.7518  140.0133  162.5276 C.ar    1  UNL1        0.0251
     22 C         139.7359  139.7089  161.4668 C.ar    1  UNL1        0.0043
     23 C         139.7855  138.2362  161.1863 C.ar    1  UNL1        0.0072
     24 C         140.8321  137.6304  162.0738 C.ar    1  UNL1        0.0352
     25 S         141.4294  138.7286  162.9028 S.2     1  UNL1       -0.0892
     26 N         141.1463  141.5328  164.5977 N.am    1  UNL1       -0.3017
     27 C         140.0017  141.1339  165.4814 C.2     1  UNL1        0.2222
     28 O         138.7507  140.5671  164.8783 O.2     1  UNL1       -0.2751
     29 H         141.9674  141.9048  164.9935 H       1  UNL1        0.1497
     30 C         140.1082  141.3019  166.9681 C.3     1  UNL1        0.0769
     31 C         139.7684  140.1590  167.8782 C.3     1  UNL1        0.0147
     32 C         139.8749  140.3269  169.3650 C.3     1  UNL1        0.0671
     33 C         140.3212  141.6377  169.9416 C.3     1  UNL1        0.2640
     34 F         140.6946  142.6770  170.9568 F       1  UNL1       -0.2043
     35 F         140.1111  140.8557  171.2043 F       1  UNL1       -0.2043
     36 C         140.6611  142.7807  169.0315 C.3     1  UNL1        0.0671
     37 C         140.5546  142.6127  167.5448 C.3     1  UNL1        0.0147
@<TRIPOS>BOND
     1    11    12    1
     2    12    13   ar
     3    13    14   ar
     4    14    15   ar
     5    15    17    1
     6    17    18    1
     7    17    19    1
     8    15    16   ar
     9     3    16    1
    10     3     4    1
    11     5     4    1
    12     5     6    1
    13     6     7    1
    14     8     7    1
    15     8     9    1
    16     8    10    1
    17    10     2    1
    18     2     1    1
    19    20     1    1
    20    20    26    1
    21    26    27   am
    22    27    28    2
    23    27    30    1
    24    30    31    1
    25    31    32    1
    26    32    33    1
    27    33    34    1
    28    33    35    1
    29    33    36    1
    30    36    37    1
    31    20    21    1
    32    21    22   ar
    33    22    23   ar
    34    23    24   ar
    35    24    25   ar
    36    16    12   ar
    37     9     3    1
    38    37    30    1
    39    25    21   ar
    40    10     5    1
    41    26    29    1
@<TRIPOS>MOLECULE
*****
 37 41 0 0 0
SMALL
GASTEIGER

@<TRIPOS>ATOM
      1 C         142.3579  140.9665  161.6836 C.3     1  UNL1        0.0419
      2 C         143.4754  141.9368  161.9278 C.3     1  UNL1        0.0741
      3 C         143.3811  142.0603  161.9503 C.3     1  UNL1        0.0904
      4 C         144.3413  142.4997  163.0156 C.3     1  UNL1        0.0386
      5 C         144.0838  143.7628  163.7827 C.3     1  UNL1        0.0594
      6 C         143.4504  145.0325  164.2690 C.3     1  UNL1        0.0174
      7 C         142.1930  145.2543  163.4817 C.3     1  UNL1        0.0174
      8 C         142.0493  144.1216  162.5088 C.3     1  UNL1        0.0594
      9 C         142.1635  142.8839  161.6520 C.3     1  UNL1        0.0386
     10 N         143.2179  143.1998  162.6949 N.3     1  UNL1       -0.2750
     11 C         144.5303  139.2666  163.1850 C.3     1  UNL1        0.0738
     12 C         144.1668  139.5131  161.7507 C.ar    1  UNL1        0.1433
     13 N         144.2677  138.5188  160.6321 N.ar    1  UNL1       -0.1337
     14 N         143.8020  139.1884  159.3733 N.ar    1  UNL1       -0.1337
     15 C         143.4131  140.5965  159.7138 C.ar    1  UNL1        0.1425
     16 N         143.6386  140.7972  161.1831 N.ar    1  UNL1       -0.3039
     17 C         142.8906  141.6236  158.7536 C.3     1  UNL1        0.0588
     18 C         141.4844  141.5243  158.2410 C.3     1  UNL1        0.0080
     19 C         143.7741  142.7502  158.3061 C.3     1  UNL1        0.0080
     20 C         141.5094  140.4964  162.8277 C.3     1  UNL1        0.1014
     21 C         140.2726  139.6902  162.5625 C.ar    1  UNL1        0.0251
     22 C         139.8997  138.4012  163.2329 C.ar    1  UNL1        0.0043
     23 C         138.5881  137.9459  162.6651 C.ar    1  UNL1        0.0072
     24 C         138.1504  138.9536  161.6437 C.ar    1  UNL1        0.0352
     25 S         139.1914  140.0316  161.5803 S.2     1  UNL1       -0.0892
     26 N         141.8977  140.8324  164.2371 N.am    1  UNL1       -0.3017
     27 C         141.0469  141.7648  165.0475 C.2     1  UNL1        0.2222
     28 O         139.8077  142.3611  164.4485 O.2     1  UNL1       -0.2751
     29 H         142.7111  140.4410  164.6303 H       1  UNL1        0.1497
     30 C         141.4352  142.1007  166.4568 C.3     1  UNL1        0.0769
     31 C         142.8635  141.9640  166.8941 C.3     1  UNL1        0.0147
     32 C         143.2519  142.2999  168.3035 C.3     1  UNL1        0.0671
     33 C         142.2118  142.7727  169.2755 C.3     1  UNL1        0.2640
     34 F         141.5933  143.2563  170.5537 F       1  UNL1       -0.2043
     35 F         143.4254  142.8039  170.1567 F       1  UNL1       -0.2043
     36 C         140.7835  142.9095  168.8383 C.3     1  UNL1        0.0671
     37 C         140.3952  142.5735  167.4289 C.3     1  UNL1        0.0147
@<TRIPOS>BOND
     1    11    12    1
     2    12    13   ar
     3    13    14   ar
     4    14    15   ar
     5    15    17    1
     6    17    18    1
     7    17    19    1
     8    15    16   ar
     9     3    16    1
    10     3     4    1
    11     5     4    1
    12     5     6    1
    13     6     7    1
    14     8     7    1
    15     8     9    1
    16     8    10    1
    17    10     2    1
    18     2     1    1
    19    20     1    1
    20    20    26    1
    21    26    27   am
    22    27    28    2
    23    27    30    1
    24    30    31    1
    25    31    32    1
    26    32    33    1
    27    33    34    1
    28    33    35    1
    29    33    36    1
    30    36    37    1
    31    20    21    1
    32    21    22   ar
    33    22    23   ar
    34    23    24   ar
    35    24    25   ar
    36    16    12   ar
    37     9     3    1
    38    37    30    1
    39    25    21   ar
    40    10     5    1
    41    26    29    1
@<TRIPOS>MOLECULE
*****
 37 41 0 0 0
SMALL
GASTEIGER

@<TRIPOS>ATOM
      1 C         140.7015  142.1929  162.6960 C.3     1  UNL1        0.0419
      2 C         141.6148  143.3517  162.9664 C.3     1  UNL1        0.0741
      3 C         141.7465  143.2663  162.9723 C.3     1  UNL1        0.0904
      4 C         142.1714  144.1446  164.1116 C.3     1  UNL1        0.0386
      5 C         143.4941  143.9166  164.7814 C.3     1  UNL1        0.0594
      6 C         144.8364  143.3459  165.1313 C.3     1  UNL1        0.0174
      7 C         145.1094  142.2002  164.2024 C.3     1  UNL1        0.0174
      8 C         143.9358  142.0629  163.2784 C.3     1  UNL1        0.0594
      9 C         142.6443  142.1602  162.5027 C.3     1  UNL1        0.0386
     10 N         142.9375  143.1237  163.6362 N.3     1  UNL1       -0.2750
     11 C         139.0519  144.4343  164.3952 C.3     1  UNL1        0.0738
     12 C         139.1852  144.0311  162.9565 C.ar    1  UNL1        0.1433
     13 N         138.1034  144.0939  161.9193 N.ar    1  UNL1       -0.1337
     14 N         138.6734  143.5959  160.6243 N.ar    1  UNL1       -0.1337
     15 C         140.1074  143.2253  160.8611 C.ar    1  UNL1        0.1425
     16 N         140.4238  143.4942  162.3025 N.ar    1  UNL1       -0.3039
     17 C         141.0583  142.6813  159.8364 C.3     1  UNL1        0.0588
     18 C         140.9415  141.2548  159.3876 C.3     1  UNL1        0.0080
     19 C         142.1259  143.5637  159.2605 C.3     1  UNL1        0.0080
     20 C         140.4318  141.1835  163.7722 C.3     1  UNL1        0.1014
     21 C         140.0808  139.7720  163.4057 C.ar    1  UNL1        0.0251
     22 C         140.8706  138.8735  162.5007 C.ar    1  UNL1        0.0043
     23 C         140.1562  137.5574  162.4156 C.ar    1  UNL1        0.0072
     24 C         138.9249  137.6423  163.2681 C.ar    1  UNL1        0.0352
     25 S         138.8783  139.0110  163.8800 S.2     1  UNL1       -0.0892
     26 N         140.5131  141.5856  165.2151 N.am    1  UNL1       -0.3017
     27 C         141.5749  141.0001  166.0982 C.2     1  UNL1        0.2222
     28 O         142.5555  140.0126  165.5384 O.2     1  UNL1       -0.2751
     29 H         139.8695  142.2337  165.5825 H       1  UNL1        0.1497
     30 C         141.6561  141.4022  167.5410 C.3     1  UNL1        0.0769
     31 C         140.4998  141.1385  168.4592 C.3     1  UNL1        0.0147
     32 C         140.5810  141.5406  169.9021 C.3     1  UNL1        0.0671
     33 C         141.8186  142.2063  170.4266 C.3     1  UNL1        0.2640
     34 F         142.7693  142.8592  171.3857 F       1  UNL1       -0.2043
     35 F         140.9924  142.1694  171.6780 F       1  UNL1       -0.2043
     36 C         142.9750  142.4700  169.5083 C.3     1  UNL1        0.0671
     37 C         142.8938  142.0679  168.0655 C.3     1  UNL1        0.0147
@<TRIPOS>BOND
     1    11    12    1
     2    12    13   ar
     3    13    14   ar
     4    14    15   ar
     5    15    17    1
     6    17    18    1
     7    17    19    1
     8    15    16   ar
     9     3    16    1
    10     3     4    1
    11     5     4    1
    12     5     6    1
    13     6     7    1
    14     8     7    1
    15     8     9    1
    16     8    10    1
    17    10     2    1
    18     2     1    1
    19    20     1    1
    20    20    26    1
    21    26    27   am
    22    27    28    2
    23    27    30    1
    24    30    31    1
    25    31    32    1
    26    32    33    1
    27    33    34    1
    28    33    35    1
    29    33    36    1
    30    36    37    1
    31    20    21    1
    32    21    22   ar
    33    22    23   ar
    34    23    24   ar
    35    24    25   ar
    36    16    12   ar
    37     9     3    1
    38    37    30    1
    39    25    21   ar
    40    10     5    1
    41    26    29    1
@<TRIPOS>MOLECULE
*****
 37 41 0 0 0
SMALL
GASTEIGER

@<TRIPOS>ATOM
      1 C         140.4622  140.9057  162.1509 C.3     1  UNL1        0.0419
      2 C         141.2078  139.7003  162.6417 C.3     1  UNL1        0.0741
      3 C         141.3526  139.7582  162.6234 C.3     1  UNL1        0.0904
      4 C         141.6771  139.1578  163.9591 C.3     1  UNL1        0.0386
      5 C         143.0535  139.3105  164.5356 C.3     1  UNL1        0.0594
      6 C         144.4922  139.6973  164.7101 C.3     1  UNL1        0.0174
      7 C         144.9120  140.4789  163.5006 C.3     1  UNL1        0.0174
      8 C         143.7328  140.5751  162.5786 C.3     1  UNL1        0.0594
      9 C         142.4044  140.5115  161.8642 C.3     1  UNL1        0.0386
     10 N         142.5842  139.8530  163.2182 N.3     1  UNL1       -0.2750
     11 C         140.5292  140.1621  159.4915 C.3     1  UNL1        0.0738
     12 C         139.5978  139.7911  160.6073 C.ar    1  UNL1        0.1433
     13 N         138.1244  139.5407  160.4793 N.ar    1  UNL1       -0.1337
     14 N         137.5923  139.2003  161.8398 N.ar    1  UNL1       -0.1337
     15 C         138.7367  139.2403  162.8085 C.ar    1  UNL1        0.1425
     16 N         139.9762  139.6055  162.0468 N.ar    1  UNL1       -0.3039
     17 C         138.6559  138.9637  164.2806 C.3     1  UNL1        0.0588
     18 C         138.2427  140.0520  165.2266 C.3     1  UNL1        0.0080
     19 C         138.9884  137.5989  164.8068 C.3     1  UNL1        0.0080
     20 C         140.4420  142.1607  162.9721 C.3     1  UNL1        0.1014
     21 C         140.3547  143.4974  162.2971 C.ar    1  UNL1        0.0251
     22 C         139.7764  144.7483  162.8895 C.ar    1  UNL1        0.0043
     23 C         139.8947  145.8418  161.8696 C.ar    1  UNL1        0.0072
     24 C         140.5462  145.2668  160.6469 C.ar    1  UNL1        0.0352
     25 S         140.8304  143.8179  160.9111 S.2     1  UNL1       -0.0892
     26 N         140.5091  142.0792  164.4685 N.am    1  UNL1       -0.3017
     27 C         141.6924  142.6428  165.1980 C.2     1  UNL1        0.2222
     28 O         142.8086  143.2880  164.4312 O.2     1  UNL1       -0.2751
     29 H         139.7765  141.6558  164.9717 H       1  UNL1        0.1497
     30 C         141.7595  142.5613  166.6942 C.3     1  UNL1        0.0769
     31 C         143.0653  142.2681  167.3715 C.3     1  UNL1        0.0147
     32 C         143.1324  142.1866  168.8679 C.3     1  UNL1        0.0671
     33 C         141.8936  142.3982  169.6868 C.3     1  UNL1        0.2640
     34 F         141.0007  142.5230  170.8856 F       1  UNL1       -0.2043
     35 F         142.8894  142.1484  170.7804 F       1  UNL1       -0.2043
     36 C         140.5877  142.6913  169.0094 C.3     1  UNL1        0.0671
     37 C         140.5207  142.7729  167.5132 C.3     1  UNL1        0.0147
@<TRIPOS>BOND
     1    11    12    1
     2    12    13   ar
     3    13    14   ar
     4    14    15   ar
     5    15    17    1
     6    17    18    1
     7    17    19    1
     8    15    16   ar
     9     3    16    1
    10     3     4    1
    11     5     4    1
    12     5     6    1
    13     6     7    1
    14     8     7    1
    15     8     9    1
    16     8    10    1
    17    10     2    1
    18     2     1    1
    19    20     1    1
    20    20    26    1
    21    26    27   am
    22    27    28    2
    23    27    30    1
    24    30    31    1
    25    31    32    1
    26    32    33    1
    27    33    34    1
    28    33    35    1
    29    33    36    1
    30    36    37    1
    31    20    21    1
    32    21    22   ar
    33    22    23   ar
    34    23    24   ar
    35    24    25   ar
    36    16    12   ar
    37     9     3    1
    38    37    30    1
    39    25    21   ar
    40    10     5    1
    41    26    29    1
