@<TRIPOS>MOLECULE
*****
 33 37 0 0 0
SMALL
GASTEIGER

@<TRIPOS>ATOM
      1 C         139.4448  142.4654  158.1801 C.3     1  UNL1        0.1531
      2 C         138.5730  142.3163  159.3916 C.3     1  UNL1        0.1067
      3 N         138.8392  141.2167  160.3764 N.3     1  UNL1       -0.2665
      4 C         137.9674  141.0676  161.5879 C.3     1  UNL1        0.0940
      5 C         138.2336  139.9680  162.5727 C.3     1  UNL1        0.1107
      6 N         139.3716  139.0174  162.3461 N.am    1  UNL1       -0.2764
      7 C         139.6378  137.9177  163.3310 C.2     1  UNL1        0.2302
      8 O         140.7758  136.9672  163.1043 O.2     1  UNL1       -0.2745
      9 C         140.2434  139.1665  161.1346 C.3     1  UNL1        0.1119
     10 C         139.9772  140.2661  160.1497 C.3     1  UNL1        0.1075
     11 C         140.8490  140.4152  158.9382 C.3     1  UNL1        0.1601
     12 O         140.5828  141.5148  157.9534 O.3     1  UNL1       -0.3489
     13 C         137.5273  142.0198  155.9163 C.3     1  UNL1        0.0315
     14 C         138.2199  143.3423  156.0633 C.ar    1  UNL1       -0.0139
     15 C         137.9537  144.4418  155.0784 C.ar    1  UNL1        0.0643
     16 C         138.6462  145.7643  155.2254 C.ar    1  UNL1        0.0099
     17 C         139.6049  145.9871  156.3573 C.ar    1  UNL1        0.0004
     18 C         139.8711  144.8875  157.3422 C.ar    1  UNL1       -0.0022
     19 C         139.1786  143.5651  157.1952 C.ar    1  UNL1        0.0026
     20 C         136.9949  144.2190  153.9465 C.1     1  UNL1        0.1001
     21 N         136.0362  143.9962  152.8146 N.1     1  UNL1       -0.1908
     22 C         138.7660  137.7687  164.5424 C.3     1  UNL1        0.1131
     23 C         139.0791  138.5387  165.7910 C.ar    1  UNL1        0.0062
     24 C         140.3947  139.2466  165.9256 C.ar    1  UNL1        0.0009
     25 C         140.7078  140.0166  167.1742 C.ar    1  UNL1        0.0386
     26 C         139.7054  140.0787  168.2883 C.ar    1  UNL1        0.1672
     27 N         138.3898  139.3709  168.1538 N.ar    1  UNL1       -0.2252
     28 C         138.0766  138.6008  166.9051 C.ar    1  UNL1        0.0968
     29 N         140.0185  140.8487  169.5369 N.ar    1  UNL1       -0.1708
     30 C         140.2694  142.3251  169.6227 C.ar    1  UNL1        0.2272
     31 N         140.5416  142.6664  171.0578 N.ar    1  UNL1       -0.1044
     32 N         140.4589  141.4009  171.8589 N.ar    1  UNL1       -0.0222
     33 N         140.1356  140.2776  170.9190 N.ar    1  UNL1       -0.0371
@<TRIPOS>BOND
     1    13    14    1
     2    14    15   ar
     3    15    20    1
     4    20    21    3
     5    15    16   ar
     6    16    17   ar
     7    17    18   ar
     8    18    19   ar
     9     1    19    1
    10     1     2    1
    11     2     3    1
    12     3     4    1
    13     4     5    1
    14     5     6    1
    15     6     7   am
    16     7     8    2
    17     7    22    1
    18    22    23    1
    19    23    24   ar
    20    24    25   ar
    21    25    26   ar
    22    26    29    1
    23    29    30   ar
    24    30    31   ar
    25    31    32   ar
    26    32    33   ar
    27    26    27   ar
    28    27    28   ar
    29     6     9    1
    30    10     9    1
    31    10    11    1
    32    11    12    1
    33    19    14   ar
    34    12     1    1
    35    10     3    1
    36    28    23   ar
    37    33    29   ar
@<TRIPOS>MOLECULE
*****
 33 37 0 0 0
SMALL
GASTEIGER

@<TRIPOS>ATOM
      1 C         138.7416  141.7551  157.8595 C.3     1  UNL1        0.1531
      2 C         137.9476  141.6166  159.1245 C.3     1  UNL1        0.1067
      3 N         138.3886  140.6517  160.1849 N.3     1  UNL1       -0.2665
      4 C         137.5947  140.5132  161.4501 C.3     1  UNL1        0.0940
      5 C         138.0357  139.5483  162.5104 C.3     1  UNL1        0.1107
      6 N         139.2707  138.7219  162.3057 N.am    1  UNL1       -0.2764
      7 C         139.7117  137.7570  163.3662 C.2     1  UNL1        0.2302
      8 O         140.9466  136.9305  163.1615 O.2     1  UNL1       -0.2745
      9 C         140.0646  138.8604  161.0407 C.3     1  UNL1        0.1119
     10 C         139.6236  139.8253  159.9802 C.3     1  UNL1        0.1075
     11 C         140.4175  139.9638  158.7151 C.3     1  UNL1        0.1601
     12 O         139.9765  140.9287  157.6548 O.3     1  UNL1       -0.3489
     13 C         140.2849  144.2861  157.3990 C.3     1  UNL1        0.0315
     14 C         139.0722  143.9855  156.5688 C.ar    1  UNL1       -0.0139
     15 C         138.6312  144.9505  155.5084 C.ar    1  UNL1        0.0643
     16 C         137.4186  144.6499  154.6782 C.ar    1  UNL1        0.0099
     17 C         136.6469  143.3843  154.9084 C.ar    1  UNL1        0.0004
     18 C         137.0879  142.4194  155.9689 C.ar    1  UNL1       -0.0022
     19 C         138.3005  142.7200  156.7990 C.ar    1  UNL1        0.0026
     20 C         139.4029  146.2160  155.2781 C.1     1  UNL1        0.1001
     21 N         140.1745  147.4815  155.0479 N.1     1  UNL1       -0.1908
     22 C         138.9177  137.6185  164.6313 C.3     1  UNL1        0.1131
     23 C         139.2130  138.5072  165.8030 C.ar    1  UNL1        0.0062
     24 C         140.4999  139.2760  165.8558 C.ar    1  UNL1        0.0009
     25 C         140.7952  140.1647  167.0276 C.ar    1  UNL1        0.0386
     26 C         139.8035  140.2846  168.1466 C.ar    1  UNL1        0.1672
     27 N         138.5166  139.5158  168.0938 N.ar    1  UNL1       -0.2252
     28 C         138.2213  138.6271  166.9220 C.ar    1  UNL1        0.0968
     29 N         140.0987  141.1732  169.3183 N.ar    1  UNL1       -0.1708
     30 C         140.5152  142.6127  169.2504 C.ar    1  UNL1        0.2272
     31 N         140.7032  143.1076  170.6539 N.ar    1  UNL1       -0.1044
     32 N         140.4028  141.9740  171.5893 N.ar    1  UNL1       -0.0222
     33 N         140.0292  140.7785  170.7639 N.ar    1  UNL1       -0.0371
@<TRIPOS>BOND
     1    13    14    1
     2    14    15   ar
     3    15    20    1
     4    20    21    3
     5    15    16   ar
     6    16    17   ar
     7    17    18   ar
     8    18    19   ar
     9     1    19    1
    10     1     2    1
    11     2     3    1
    12     3     4    1
    13     4     5    1
    14     5     6    1
    15     6     7   am
    16     7     8    2
    17     7    22    1
    18    22    23    1
    19    23    24   ar
    20    24    25   ar
    21    25    26   ar
    22    26    29    1
    23    29    30   ar
    24    30    31   ar
    25    31    32   ar
    26    32    33   ar
    27    26    27   ar
    28    27    28   ar
    29     6     9    1
    30    10     9    1
    31    10    11    1
    32    11    12    1
    33    19    14   ar
    34    12     1    1
    35    10     3    1
    36    28    23   ar
    37    33    29   ar
@<TRIPOS>MOLECULE
*****
 33 37 0 0 0
SMALL
GASTEIGER

@<TRIPOS>ATOM
      1 C         142.4925  140.6276  164.2407 C.3     1  UNL1        0.1531
      2 C         141.6289  139.7937  163.3414 C.3     1  UNL1        0.1067
      3 N         142.0127  139.5964  161.9049 N.3     1  UNL1       -0.2665
      4 C         141.1491  138.7625  161.0055 C.3     1  UNL1        0.0940
      5 C         141.5329  138.5651  159.5690 C.3     1  UNL1        0.1107
      6 N         142.7804  139.2016  159.0318 N.am    1  UNL1       -0.2764
      7 C         143.1643  139.0042  157.5952 C.2     1  UNL1        0.2302
      8 O         144.4118  139.6407  157.0579 O.2     1  UNL1       -0.2745
      9 C         143.6441  140.0355  159.9311 C.3     1  UNL1        0.1119
     10 C         143.2602  140.2329  161.3677 C.3     1  UNL1        0.1075
     11 C         144.1239  141.0667  162.2669 C.3     1  UNL1        0.1601
     12 O         143.7400  141.2641  163.7035 O.3     1  UNL1       -0.3489
     13 C         143.4101  138.6704  166.3210 C.3     1  UNL1        0.0315
     14 C         142.5675  139.8464  166.7175 C.ar    1  UNL1       -0.0139
     15 C         142.1837  140.0438  168.1540 C.ar    1  UNL1        0.0643
     16 C         141.3411  141.2198  168.5505 C.ar    1  UNL1        0.0099
     17 C         140.8823  142.1983  167.5104 C.ar    1  UNL1        0.0004
     18 C         141.2661  142.0009  166.0737 C.ar    1  UNL1       -0.0022
     19 C         142.1087  140.8250  165.6773 C.ar    1  UNL1        0.0026
     20 C         142.6425  139.0652  169.1942 C.1     1  UNL1        0.1001
     21 N         143.1013  138.0866  170.2343 N.1     1  UNL1       -0.1908
     22 C         142.3006  138.1703  156.6959 C.3     1  UNL1        0.1131
     23 C         142.6965  136.7602  156.3724 C.ar    1  UNL1        0.0062
     24 C         142.7012  136.2905  154.9478 C.ar    1  UNL1        0.0009
     25 C         143.0970  134.8803  154.6243 C.ar    1  UNL1        0.0386
     26 C         143.4882  133.9398  155.7254 C.ar    1  UNL1        0.1672
     27 N         143.4836  134.4094  157.1500 N.ar    1  UNL1       -0.2252
     28 C         143.0877  135.8196  157.4735 C.ar    1  UNL1        0.0968
     29 N         143.8841  132.5296  155.4019 N.ar    1  UNL1       -0.1708
     30 C         143.2372  131.6451  154.3775 C.ar    1  UNL1        0.2272
     31 N         143.9497  130.3251  154.3885 N.ar    1  UNL1       -0.1044
     32 N         145.0369  130.3938  155.4198 N.ar    1  UNL1       -0.0222
     33 N         144.9963  131.7562  156.0461 N.ar    1  UNL1       -0.0371
@<TRIPOS>BOND
     1    13    14    1
     2    14    15   ar
     3    15    20    1
     4    20    21    3
     5    15    16   ar
     6    16    17   ar
     7    17    18   ar
     8    18    19   ar
     9     1    19    1
    10     1     2    1
    11     2     3    1
    12     3     4    1
    13     4     5    1
    14     5     6    1
    15     6     7   am
    16     7     8    2
    17     7    22    1
    18    22    23    1
    19    23    24   ar
    20    24    25   ar
    21    25    26   ar
    22    26    29    1
    23    29    30   ar
    24    30    31   ar
    25    31    32   ar
    26    32    33   ar
    27    26    27   ar
    28    27    28   ar
    29     6     9    1
    30    10     9    1
    31    10    11    1
    32    11    12    1
    33    19    14   ar
    34    12     1    1
    35    10     3    1
    36    28    23   ar
    37    33    29   ar
@<TRIPOS>MOLECULE
*****
 33 37 0 0 0
SMALL
GASTEIGER

@<TRIPOS>ATOM
      1 C         142.3018  140.7326  165.4883 C.3     1  UNL1        0.1531
      2 C         142.4283  141.7892  164.4312 C.3     1  UNL1        0.1067
      3 N         142.6991  141.3981  163.0086 N.3     1  UNL1       -0.2665
      4 C         142.8255  142.4547  161.9514 C.3     1  UNL1        0.0940
      5 C         143.0963  142.0637  160.5289 C.3     1  UNL1        0.1107
      6 N         143.2406  140.6161  160.1634 N.am    1  UNL1       -0.2764
      7 C         143.5114  140.2250  158.7408 C.2     1  UNL1        0.2302
      8 O         143.6557  138.7774  158.3754 O.2     1  UNL1       -0.2745
      9 C         143.1142  139.5595  161.2206 C.3     1  UNL1        0.1119
     10 C         142.8434  139.9505  162.6432 C.3     1  UNL1        0.1075
     11 C         142.7169  138.8939  163.7004 C.3     1  UNL1        0.1601
     12 O         142.4461  139.2850  165.1229 O.3     1  UNL1       -0.3489
     13 C         139.8430  139.7230  166.8794 C.3     1  UNL1        0.0315
     14 C         140.8016  140.6188  167.6065 C.ar    1  UNL1       -0.0139
     15 C         140.5308  141.0098  169.0291 C.ar    1  UNL1        0.0643
     16 C         141.4894  141.9056  169.7562 C.ar    1  UNL1        0.0099
     17 C         142.7188  142.4104  169.0607 C.ar    1  UNL1        0.0004
     18 C         142.9896  142.0194  167.6380 C.ar    1  UNL1       -0.0022
     19 C         142.0310  141.1236  166.9110 C.ar    1  UNL1        0.0026
     20 C         139.3014  140.5050  169.7246 C.1     1  UNL1        0.1001
     21 N         138.0720  140.0001  170.4201 N.1     1  UNL1       -0.1908
     22 C         143.6379  141.2816  157.6837 C.3     1  UNL1        0.1131
     23 C         144.9505  141.4951  156.9900 C.ar    1  UNL1        0.0062
     24 C         145.9427  142.4729  157.5466 C.ar    1  UNL1        0.0009
     25 C         147.2554  142.6864  156.8529 C.ar    1  UNL1        0.0386
     26 C         147.5760  141.9222  155.6026 C.ar    1  UNL1        0.1672
     27 N         146.5840  140.9445  155.0460 N.ar    1  UNL1       -0.2252
     28 C         145.2712  140.7309  155.7397 C.ar    1  UNL1        0.0968
     29 N         148.8887  142.1358  154.9090 N.ar    1  UNL1       -0.1708
     30 C         149.0841  142.7911  153.5739 C.ar    1  UNL1        0.2272
     31 N         150.5527  142.7918  153.2684 N.ar    1  UNL1       -0.1044
     32 N         151.2649  142.1369  154.4147 N.ar    1  UNL1       -0.0222
     33 N         150.2366  141.7315  155.4286 N.ar    1  UNL1       -0.0371
@<TRIPOS>BOND
     1    13    14    1
     2    14    15   ar
     3    15    20    1
     4    20    21    3
     5    15    16   ar
     6    16    17   ar
     7    17    18   ar
     8    18    19   ar
     9     1    19    1
    10     1     2    1
    11     2     3    1
    12     3     4    1
    13     4     5    1
    14     5     6    1
    15     6     7   am
    16     7     8    2
    17     7    22    1
    18    22    23    1
    19    23    24   ar
    20    24    25   ar
    21    25    26   ar
    22    26    29    1
    23    29    30   ar
    24    30    31   ar
    25    31    32   ar
    26    32    33   ar
    27    26    27   ar
    28    27    28   ar
    29     6     9    1
    30    10     9    1
    31    10    11    1
    32    11    12    1
    33    19    14   ar
    34    12     1    1
    35    10     3    1
    36    28    23   ar
    37    33    29   ar
@<TRIPOS>MOLECULE
*****
 33 37 0 0 0
SMALL
GASTEIGER

@<TRIPOS>ATOM
      1 C         141.5823  144.3181  158.4196 C.3     1  UNL1        0.1531
      2 C         141.3710  144.8439  159.8084 C.3     1  UNL1        0.1067
      3 N         142.1693  144.2881  160.9502 N.3     1  UNL1       -0.2665
      4 C         141.9580  144.8139  162.3391 C.3     1  UNL1        0.0940
      5 C         142.7563  144.2581  163.4809 C.3     1  UNL1        0.1107
      6 N         143.7659  143.1766  163.2339 N.am    1  UNL1       -0.2764
      7 C         144.5642  142.6208  164.3758 C.2     1  UNL1        0.2302
      8 O         145.5738  141.5393  164.1288 O.2     1  UNL1       -0.2745
      9 C         143.9772  142.6508  161.8451 C.3     1  UNL1        0.1119
     10 C         143.1789  143.2066  160.7032 C.3     1  UNL1        0.1075
     11 C         143.3902  142.6808  159.3144 C.3     1  UNL1        0.1601
     12 O         142.5919  143.2366  158.1725 O.3     1  UNL1       -0.3489
     13 C         139.1303  142.8786  157.4627 C.3     1  UNL1        0.0315
     14 C         139.5580  144.1541  156.7992 C.ar    1  UNL1       -0.0139
     15 C         138.7597  144.7098  155.6574 C.ar    1  UNL1        0.0643
     16 C         139.1874  145.9854  154.9939 C.ar    1  UNL1        0.0099
     17 C         140.4134  146.7052  155.4723 C.ar    1  UNL1        0.0004
     18 C         141.2117  146.1494  156.6142 C.ar    1  UNL1       -0.0022
     19 C         140.7840  144.8739  157.2776 C.ar    1  UNL1        0.0026
     20 C         137.5337  143.9901  155.1790 C.1     1  UNL1        0.1001
     21 N         136.3077  143.2703  154.7006 N.1     1  UNL1       -0.1908
     22 C         144.3529  143.1466  165.7647 C.3     1  UNL1        0.1131
     23 C         143.3515  142.4926  166.6698 C.ar    1  UNL1        0.0062
     24 C         143.5564  142.5151  168.1556 C.ar    1  UNL1        0.0009
     25 C         142.5549  141.8612  169.0608 C.ar    1  UNL1        0.0386
     26 C         141.3485  141.1847  168.4802 C.ar    1  UNL1        0.1672
     27 N         141.1436  141.1622  166.9945 N.ar    1  UNL1       -0.2252
     28 C         142.1451  141.8162  166.0893 C.ar    1  UNL1        0.0968
     29 N         140.3471  140.5308  169.3854 N.ar    1  UNL1       -0.1708
     30 C         140.6155  140.0072  170.7652 C.ar    1  UNL1        0.2272
     31 N         139.3355  139.4384  171.3023 N.ar    1  UNL1       -0.1044
     32 N         138.2761  139.6105  170.2544 N.ar    1  UNL1       -0.0222
     33 N         138.9012  140.2856  169.0697 N.ar    1  UNL1       -0.0371
@<TRIPOS>BOND
     1    13    14    1
     2    14    15   ar
     3    15    20    1
     4    20    21    3
     5    15    16   ar
     6    16    17   ar
     7    17    18   ar
     8    18    19   ar
     9     1    19    1
    10     1     2    1
    11     2     3    1
    12     3     4    1
    13     4     5    1
    14     5     6    1
    15     6     7   am
    16     7     8    2
    17     7    22    1
    18    22    23    1
    19    23    24   ar
    20    24    25   ar
    21    25    26   ar
    22    26    29    1
    23    29    30   ar
    24    30    31   ar
    25    31    32   ar
    26    32    33   ar
    27    26    27   ar
    28    27    28   ar
    29     6     9    1
    30    10     9    1
    31    10    11    1
    32    11    12    1
    33    19    14   ar
    34    12     1    1
    35    10     3    1
    36    28    23   ar
    37    33    29   ar
@<TRIPOS>MOLECULE
*****
 33 37 0 0 0
SMALL
GASTEIGER

@<TRIPOS>ATOM
      1 C         141.4439  140.4152  164.3640 C.3     1  UNL1        0.1531
      2 C         142.5123  139.6107  163.6849 C.3     1  UNL1        0.1067
      3 N         142.3446  139.1989  162.2524 N.3     1  UNL1       -0.2665
      4 C         143.4131  138.3944  161.5732 C.3     1  UNL1        0.0940
      5 C         143.2454  137.9826  160.1407 C.3     1  UNL1        0.1107
      6 N         142.0093  138.3753  159.3872 N.am    1  UNL1       -0.2764
      7 C         141.8416  137.9635  157.9545 C.2     1  UNL1        0.2302
      8 O         140.6055  138.3563  157.2010 O.2     1  UNL1       -0.2745
      9 C         140.9408  139.1798  160.0662 C.3     1  UNL1        0.1119
     10 C         141.1085  139.5916  161.4989 C.3     1  UNL1        0.1075
     11 C         140.0400  140.3961  162.1780 C.3     1  UNL1        0.1601
     12 O         140.2077  140.8079  163.6105 O.3     1  UNL1       -0.3489
     13 C         139.4518  139.5258  166.4233 C.3     1  UNL1        0.0315
     14 C         140.6155  140.3823  166.8263 C.ar    1  UNL1       -0.0139
     15 C         140.7831  140.7941  168.2589 C.ar    1  UNL1        0.0643
     16 C         141.9468  141.6506  168.6619 C.ar    1  UNL1        0.0099
     17 C         142.9428  142.0952  167.6322 C.ar    1  UNL1        0.0004
     18 C         142.7752  141.6834  166.1996 C.ar    1  UNL1       -0.0022
     19 C         141.6115  140.8270  165.7966 C.ar    1  UNL1        0.0026
     20 C         139.7871  140.3494  169.2885 C.1     1  UNL1        0.1001
     21 N         138.7910  139.9047  170.3182 N.1     1  UNL1       -0.1908
     22 C         142.9100  137.1590  157.2755 C.3     1  UNL1        0.1131
     23 C         142.6291  135.7493  156.8471 C.ar    1  UNL1        0.0062
     24 C         141.7510  135.4870  155.6596 C.ar    1  UNL1        0.0009
     25 C         141.4701  134.0772  155.2312 C.ar    1  UNL1        0.0386
     26 C         142.0673  132.9296  155.9904 C.ar    1  UNL1        0.1672
     27 N         142.9454  133.1918  157.1778 N.ar    1  UNL1       -0.2252
     28 C         143.2263  134.6016  157.6062 C.ar    1  UNL1        0.0968
     29 N         141.7864  131.5198  155.5620 N.ar    1  UNL1       -0.1708
     30 C         142.6734  130.3334  155.7977 C.ar    1  UNL1        0.2272
     31 N         142.0043  129.1291  155.2041 N.ar    1  UNL1       -0.1044
     32 N         140.7037  129.5714  154.6015 N.ar    1  UNL1       -0.0222
     33 N         140.5690  131.0489  154.8228 N.ar    1  UNL1       -0.0371
@<TRIPOS>BOND
     1    13    14    1
     2    14    15   ar
     3    15    20    1
     4    20    21    3
     5    15    16   ar
     6    16    17   ar
     7    17    18   ar
     8    18    19   ar
     9     1    19    1
    10     1     2    1
    11     2     3    1
    12     3     4    1
    13     4     5    1
    14     5     6    1
    15     6     7   am
    16     7     8    2
    17     7    22    1
    18    22    23    1
    19    23    24   ar
    20    24    25   ar
    21    25    26   ar
    22    26    29    1
    23    29    30   ar
    24    30    31   ar
    25    31    32   ar
    26    32    33   ar
    27    26    27   ar
    28    27    28   ar
    29     6     9    1
    30    10     9    1
    31    10    11    1
    32    11    12    1
    33    19    14   ar
    34    12     1    1
    35    10     3    1
    36    28    23   ar
    37    33    29   ar
@<TRIPOS>MOLECULE
*****
 33 37 0 0 0
SMALL
GASTEIGER

@<TRIPOS>ATOM
      1 C         142.0406  137.5885  157.0262 C.3     1  UNL1        0.1531
      2 C         140.8188  137.7778  157.8756 C.3     1  UNL1        0.1067
      3 N         140.8783  138.6567  159.0896 N.3     1  UNL1       -0.2665
      4 C         139.6565  138.8460  159.9390 C.3     1  UNL1        0.0940
      5 C         139.7159  139.7250  161.1530 C.3     1  UNL1        0.1107
      6 N         140.9971  140.4147  161.5176 N.am    1  UNL1       -0.2764
      7 C         141.0564  141.2937  162.7317 C.2     1  UNL1        0.2302
      8 O         142.3376  141.9834  163.0963 O.2     1  UNL1       -0.2745
      9 C         142.2188  140.2254  160.6683 C.3     1  UNL1        0.1119
     10 C         142.1594  139.3464  159.4542 C.3     1  UNL1        0.1075
     11 C         143.3811  139.1572  158.6048 C.3     1  UNL1        0.1601
     12 O         143.3217  138.2782  157.3908 O.3     1  UNL1       -0.3489
     13 C         143.1199  134.7919  157.1449 C.3     1  UNL1        0.0315
     14 C         142.5209  135.3112  155.8714 C.ar    1  UNL1       -0.0139
     15 C         142.4615  134.4322  154.6575 C.ar    1  UNL1        0.0643
     16 C         141.8625  134.9515  153.3840 C.ar    1  UNL1        0.0099
     17 C         141.3228  136.3498  153.3247 C.ar    1  UNL1        0.0004
     18 C         141.3822  137.2288  154.5388 C.ar    1  UNL1       -0.0022
     19 C         141.9812  136.7095  155.8121 C.ar    1  UNL1        0.0026
     20 C         143.0012  133.0339  154.7168 C.1     1  UNL1        0.1001
     21 N         143.5409  131.6356  154.7762 N.1     1  UNL1       -0.1908
     22 C         139.8347  141.4829  163.5811 C.3     1  UNL1        0.1131
     23 C         139.9566  141.5045  165.0760 C.ar    1  UNL1        0.0062
     24 C         139.7953  140.2359  165.8600 C.ar    1  UNL1        0.0009
     25 C         139.9172  140.2575  167.3549 C.ar    1  UNL1        0.0386
     26 C         140.2003  141.5476  168.0658 C.ar    1  UNL1        0.1672
     27 N         140.3616  142.8162  167.2818 N.ar    1  UNL1       -0.2252
     28 C         140.2397  142.7947  165.7868 C.ar    1  UNL1        0.0968
     29 N         140.3222  141.5692  169.5606 N.ar    1  UNL1       -0.1708
     30 C         140.6984  140.4073  170.4314 C.ar    1  UNL1        0.2272
     31 N         140.6980  140.8765  171.8563 N.ar    1  UNL1       -0.1044
     32 N         140.3215  142.3285  171.8659 N.ar    1  UNL1       -0.0222
     33 N         140.0893  142.7566  170.4472 N.ar    1  UNL1       -0.0371
@<TRIPOS>BOND
     1    13    14    1
     2    14    15   ar
     3    15    20    1
     4    20    21    3
     5    15    16   ar
     6    16    17   ar
     7    17    18   ar
     8    18    19   ar
     9     1    19    1
    10     1     2    1
    11     2     3    1
    12     3     4    1
    13     4     5    1
    14     5     6    1
    15     6     7   am
    16     7     8    2
    17     7    22    1
    18    22    23    1
    19    23    24   ar
    20    24    25   ar
    21    25    26   ar
    22    26    29    1
    23    29    30   ar
    24    30    31   ar
    25    31    32   ar
    26    32    33   ar
    27    26    27   ar
    28    27    28   ar
    29     6     9    1
    30    10     9    1
    31    10    11    1
    32    11    12    1
    33    19    14   ar
    34    12     1    1
    35    10     3    1
    36    28    23   ar
    37    33    29   ar
@<TRIPOS>MOLECULE
*****
 33 37 0 0 0
SMALL
GASTEIGER

@<TRIPOS>ATOM
      1 C         142.3322  142.4394  165.8394 C.3     1  UNL1        0.1531
      2 C         143.2747  141.6571  164.9736 C.3     1  UNL1        0.1067
      3 N         143.4005  141.9847  163.5153 N.3     1  UNL1       -0.2665
      4 C         144.3431  141.2024  162.6494 C.3     1  UNL1        0.0940
      5 C         144.4689  141.5300  161.1911 C.3     1  UNL1        0.1107
      6 N         143.6521  142.6398  160.5985 N.am    1  UNL1       -0.2764
      7 C         143.7780  142.9674  159.1400 C.2     1  UNL1        0.2302
      8 O         142.9612  144.0772  158.5475 O.2     1  UNL1       -0.2745
      9 C         142.7096  143.4221  161.4642 C.3     1  UNL1        0.1119
     10 C         142.5838  143.0945  162.9227 C.3     1  UNL1        0.1075
     11 C         141.6412  143.8768  163.7884 C.3     1  UNL1        0.1601
     12 O         141.5154  143.5493  165.2468 O.3     1  UNL1       -0.3489
     13 C         139.8102  141.1961  166.8853 C.3     1  UNL1        0.0315
     14 C         140.9454  141.4902  167.8208 C.ar    1  UNL1       -0.0139
     15 C         140.8195  141.1626  169.2791 C.ar    1  UNL1        0.0643
     16 C         141.9546  141.4568  170.2146 C.ar    1  UNL1        0.0099
     17 C         143.2156  142.0784  169.6916 C.ar    1  UNL1        0.0004
     18 C         143.3414  142.4060  168.2332 C.ar    1  UNL1       -0.0022
     19 C         142.2063  142.1119  167.2978 C.ar    1  UNL1        0.0026
     20 C         139.5585  140.5410  169.8021 C.1     1  UNL1        0.1001
     21 N         138.2976  139.9193  170.3250 N.1     1  UNL1       -0.1908
     22 C         144.7205  142.1851  158.2743 C.3     1  UNL1        0.1131
     23 C         144.2812  140.8829  157.6733 C.ar    1  UNL1        0.0062
     24 C         143.1111  140.1456  158.2542 C.ar    1  UNL1        0.0009
     25 C         142.6718  138.8434  157.6533 C.ar    1  UNL1        0.0386
     26 C         143.4025  138.2784  156.4714 C.ar    1  UNL1        0.1672
     27 N         144.5726  139.0155  155.8905 N.ar    1  UNL1       -0.2252
     28 C         145.0119  140.3178  156.4915 C.ar    1  UNL1        0.0968
     29 N         142.9632  136.9761  155.8705 N.ar    1  UNL1       -0.1708
     30 C         141.5512  136.4776  155.7823 C.ar    1  UNL1        0.2272
     31 N         141.5741  135.1371  155.1095 N.ar    1  UNL1       -0.1044
     32 N         143.0002  134.8072  154.7819 N.ar    1  UNL1       -0.0222
     33 N         143.8587  135.9437  155.2522 N.ar    1  UNL1       -0.0371
@<TRIPOS>BOND
     1    13    14    1
     2    14    15   ar
     3    15    20    1
     4    20    21    3
     5    15    16   ar
     6    16    17   ar
     7    17    18   ar
     8    18    19   ar
     9     1    19    1
    10     1     2    1
    11     2     3    1
    12     3     4    1
    13     4     5    1
    14     5     6    1
    15     6     7   am
    16     7     8    2
    17     7    22    1
    18    22    23    1
    19    23    24   ar
    20    24    25   ar
    21    25    26   ar
    22    26    29    1
    23    29    30   ar
    24    30    31   ar
    25    31    32   ar
    26    32    33   ar
    27    26    27   ar
    28    27    28   ar
    29     6     9    1
    30    10     9    1
    31    10    11    1
    32    11    12    1
    33    19    14   ar
    34    12     1    1
    35    10     3    1
    36    28    23   ar
    37    33    29   ar
@<TRIPOS>MOLECULE
*****
 33 37 0 0 0
SMALL
GASTEIGER

@<TRIPOS>ATOM
      1 C         140.5736  138.9532  158.0551 C.3     1  UNL1        0.1531
      2 C         140.1914  138.4141  159.4017 C.3     1  UNL1        0.1067
      3 N         141.1174  138.5868  160.5690 N.3     1  UNL1       -0.2665
      4 C         140.7352  138.0477  161.9157 C.3     1  UNL1        0.0940
      5 C         141.6611  138.2203  163.0830 C.3     1  UNL1        0.1107
      6 N         142.9693  138.9321  162.9038 N.am    1  UNL1       -0.2764
      7 C         143.8952  139.1048  164.0713 C.2     1  UNL1        0.2302
      8 O         145.2034  139.8166  163.8921 O.2     1  UNL1       -0.2745
      9 C         143.3515  139.4712  161.5573 C.3     1  UNL1        0.1119
     10 C         142.4255  139.2986  160.3898 C.3     1  UNL1        0.1075
     11 C         142.8077  139.8377  159.0433 C.3     1  UNL1        0.1601
     12 O         141.8818  139.6650  157.8759 O.3     1  UNL1       -0.3489
     13 C         138.7996  141.2164  157.2002 C.3     1  UNL1        0.0315
     14 C         138.7607  139.9122  156.4602 C.ar    1  UNL1       -0.0139
     15 C         137.8348  139.7396  155.2928 C.ar    1  UNL1        0.0643
     16 C         137.7958  138.4353  154.5528 C.ar    1  UNL1        0.0099
     17 C         138.6828  137.3037  154.9803 C.ar    1  UNL1        0.0004
     18 C         139.6087  137.4764  156.1478 C.ar    1  UNL1       -0.0022
     19 C         139.6477  138.7806  156.8877 C.ar    1  UNL1        0.0026
     20 C         136.9478  140.8711  154.8653 C.1     1  UNL1        0.1001
     21 N         136.0608  142.0027  154.4379 N.1     1  UNL1       -0.1908
     22 C         143.5130  138.5657  165.4178 C.3     1  UNL1        0.1131
     23 C         142.8357  139.4557  166.4173 C.ar    1  UNL1        0.0062
     24 C         142.8385  139.0886  167.8717 C.ar    1  UNL1        0.0009
     25 C         142.1612  139.9786  168.8712 C.ar    1  UNL1        0.0386
     26 C         141.4810  141.2358  168.4164 C.ar    1  UNL1        0.1672
     27 N         141.4781  141.6029  166.9620 N.ar    1  UNL1       -0.2252
     28 C         142.1555  140.7128  165.9624 C.ar    1  UNL1        0.0968
     29 N         140.8036  142.1258  169.4158 N.ar    1  UNL1       -0.1708
     30 C         140.3299  141.7195  170.7798 C.ar    1  UNL1        0.2272
     31 N         139.7145  142.9211  171.4339 N.ar    1  UNL1       -0.1044
     32 N         139.8080  144.0700  170.4740 N.ar    1  UNL1       -0.0222
     33 N         140.4811  143.5786  169.2268 N.ar    1  UNL1       -0.0371
@<TRIPOS>BOND
     1    13    14    1
     2    14    15   ar
     3    15    20    1
     4    20    21    3
     5    15    16   ar
     6    16    17   ar
     7    17    18   ar
     8    18    19   ar
     9     1    19    1
    10     1     2    1
    11     2     3    1
    12     3     4    1
    13     4     5    1
    14     5     6    1
    15     6     7   am
    16     7     8    2
    17     7    22    1
    18    22    23    1
    19    23    24   ar
    20    24    25   ar
    21    25    26   ar
    22    26    29    1
    23    29    30   ar
    24    30    31   ar
    25    31    32   ar
    26    32    33   ar
    27    26    27   ar
    28    27    28   ar
    29     6     9    1
    30    10     9    1
    31    10    11    1
    32    11    12    1
    33    19    14   ar
    34    12     1    1
    35    10     3    1
    36    28    23   ar
    37    33    29   ar
