@<TRIPOS>MOLECULE
*****
 34 38 0 0 0
SMALL
GASTEIGER

@<TRIPOS>ATOM
      1 N         142.0652  144.4596  160.9741 N.ar    1  UNL1       -0.1967
      2 N         143.3040  143.9468  161.6469 N.ar    1  UNL1       -0.1666
      3 C         143.0074  143.7929  163.1092 C.ar    1  UNL1        0.0849
      4 C         141.5853  144.2106  163.3402 C.ar    1  UNL1        0.0342
      5 C         140.7454  144.2690  164.5816 C.ar    1  UNL1        0.0141
      6 C         139.3233  144.7393  164.5035 C.ar    1  UNL1        0.0578
      7 CL        138.4834  144.7977  165.7450 Cl      1  UNL1       -0.0822
      8 C         138.7409  145.1513  163.1839 C.ar    1  UNL1        0.0129
      9 C         139.5808  145.0930  161.9425 C.ar    1  UNL1        0.0202
     10 C         141.0030  144.6226  162.0206 C.ar    1  UNL1        0.0871
     11 C         141.0900  146.1437  153.7581 C.3     1  UNL1        0.0137
     12 C         141.2402  145.8462  155.2207 C.3     1  UNL1        0.0932
     13 C         142.3130  144.9052  154.7584 C.3     1  UNL1        0.0137
     14 C         140.1361  146.8493  155.3773 C.2     1  UNL1        0.2302
     15 O         139.4588  147.5956  154.2663 O.2     1  UNL1       -0.2744
     16 N         139.8281  146.9751  156.8399 N.am    1  UNL1       -0.2692
     17 C         140.7419  146.0497  157.5873 C.ar    1  UNL1        0.1363
     18 N         140.8921  145.7522  159.0498 N.ar    1  UNL1       -0.1951
     19 C         141.9150  144.7571  159.5115 C.ar    1  UNL1        0.2553
     20 N         142.7877  144.0593  158.5108 N.ar    1  UNL1       -0.1957
     21 C         142.6376  144.3568  157.0483 C.ar    1  UNL1        0.1276
     22 N         143.5103  143.6590  156.0476 N.pl3   1  UNL1       -0.3427
     23 C         141.6147  145.3520  156.5866 C.ar    1  UNL1        0.0484
     24 H         139.1460  147.5620  157.2393 H       1  UNL1        0.1563
     25 H         144.1817  143.0059  156.3506 H       1  UNL1        0.1437
     26 H         143.4118  143.8543  155.0877 H       1  UNL1        0.1437
     27 C         143.9648  143.3067  164.1566 C.3     1  UNL1        0.0762
     28 C         143.9811  141.8575  164.5430 C.ar    1  UNL1        0.0113
     29 C         142.8841  141.2972  165.3992 C.ar    1  UNL1       -0.0017
     30 C         142.9005  139.8480  165.7856 C.ar    1  UNL1       -0.0002
     31 C         144.0136  138.9590  165.3159 C.ar    1  UNL1        0.0023
     32 C         145.1105  139.5193  164.4599 C.ar    1  UNL1        0.0293
     33 C         145.0942  140.9685  164.0734 C.ar    1  UNL1        0.1365
     34 F         146.1911  141.5288  163.2173 F       1  UNL1       -0.2045
@<TRIPOS>BOND
     1    11    12    1
     2    12    13    1
     3    12    14    1
     4    14    15    2
     5    14    16   am
     6    16    17    1
     7    17    18   ar
     8    18    19   ar
     9    19     1    1
    10     1     2   ar
    11     2     3   ar
    12     3    27    1
    13    27    28    1
    14    28    29   ar
    15    29    30   ar
    16    30    31   ar
    17    31    32   ar
    18    32    33   ar
    19    33    34    1
    20     3     4   ar
    21     4     5   ar
    22     5     6   ar
    23     6     7    1
    24     6     8   ar
    25     8     9   ar
    26     9    10   ar
    27    19    20   ar
    28    20    21   ar
    29    21    22    1
    30    21    23   ar
    31    23    12    1
    32    23    17   ar
    33    10     1   ar
    34    33    28   ar
    35    10     4   ar
    36    16    24    1
    37    22    25    1
    38    22    26    1
@<TRIPOS>MOLECULE
*****
 34 38 0 0 0
SMALL
GASTEIGER

@<TRIPOS>ATOM
      1 N         140.5758  142.6127  163.9899 N.ar    1  UNL1       -0.1967
      2 N         140.8137  143.3814  165.2558 N.ar    1  UNL1       -0.1666
      3 C         140.2922  142.5634  166.3998 C.ar    1  UNL1        0.0849
      4 C         139.7320  141.2890  165.8409 C.ar    1  UNL1        0.0342
      5 C         139.0850  140.1048  166.4958 C.ar    1  UNL1        0.0141
      6 C         138.6132  138.9511  165.6614 C.ar    1  UNL1        0.0578
      7 CL        137.9661  137.7668  166.3163 Cl      1  UNL1       -0.0822
      8 C         138.7885  138.9816  164.1719 C.ar    1  UNL1        0.0129
      9 C         139.4356  140.1658  163.5170 C.ar    1  UNL1        0.0202
     10 C         139.9073  141.3195  164.3515 C.ar    1  UNL1        0.0871
     11 C         142.1573  145.0298  157.0969 C.3     1  UNL1        0.0137
     12 C         141.7909  144.5836  158.4814 C.3     1  UNL1        0.0932
     13 C         142.9887  143.6917  158.3410 C.3     1  UNL1        0.0137
     14 C         140.6698  145.5689  158.3323 C.2     1  UNL1        0.2302
     15 O         140.4041  146.4272  157.1311 O.2     1  UNL1       -0.2744
     16 N         139.8609  145.5452  159.5952 N.am    1  UNL1       -0.2692
     17 C         140.4821  144.5453  160.5249 C.ar    1  UNL1        0.1363
     18 N         140.1157  144.0992  161.9094 N.ar    1  UNL1       -0.1951
     19 C         140.9422  143.0588  162.6054 C.ar    1  UNL1        0.2553
     20 N         142.1351  142.4645  161.9169 N.ar    1  UNL1       -0.1957
     21 C         142.5014  142.9106  160.5325 C.ar    1  UNL1        0.1276
     22 N         143.6943  142.3163  159.8441 N.pl3   1  UNL1       -0.3427
     23 C         141.6750  143.9510  159.8365 C.ar    1  UNL1        0.0484
     24 H         139.0624  146.0902  159.7813 H       1  UNL1        0.1563
     25 H         144.2367  141.6335  160.3009 H       1  UNL1        0.1437
     26 H         143.9348  142.6091  158.9354 H       1  UNL1        0.1437
     27 C         140.3251  142.9515  167.8484 C.3     1  UNL1        0.0762
     28 C         141.1145  142.1328  168.8264 C.ar    1  UNL1        0.0113
     29 C         142.6099  142.2447  168.8633 C.ar    1  UNL1       -0.0017
     30 C         143.3993  141.4260  169.8413 C.ar    1  UNL1       -0.0002
     31 C         142.6933  140.4955  170.7824 C.ar    1  UNL1        0.0023
     32 C         141.1980  140.3836  170.7455 C.ar    1  UNL1        0.0293
     33 C         140.4086  141.2023  169.7675 C.ar    1  UNL1        0.1365
     34 F         138.9132  141.0904  169.7306 F       1  UNL1       -0.2045
@<TRIPOS>BOND
     1    11    12    1
     2    12    13    1
     3    12    14    1
     4    14    15    2
     5    14    16   am
     6    16    17    1
     7    17    18   ar
     8    18    19   ar
     9    19     1    1
    10     1     2   ar
    11     2     3   ar
    12     3    27    1
    13    27    28    1
    14    28    29   ar
    15    29    30   ar
    16    30    31   ar
    17    31    32   ar
    18    32    33   ar
    19    33    34    1
    20     3     4   ar
    21     4     5   ar
    22     5     6   ar
    23     6     7    1
    24     6     8   ar
    25     8     9   ar
    26     9    10   ar
    27    19    20   ar
    28    20    21   ar
    29    21    22    1
    30    21    23   ar
    31    23    12    1
    32    23    17   ar
    33    10     1   ar
    34    33    28   ar
    35    10     4   ar
    36    16    24    1
    37    22    25    1
    38    22    26    1
@<TRIPOS>MOLECULE
*****
 34 38 0 0 0
SMALL
GASTEIGER

@<TRIPOS>ATOM
      1 N         141.1481  141.8275  163.8514 N.ar    1  UNL1       -0.1967
      2 N         141.3054  142.7926  164.9889 N.ar    1  UNL1       -0.1666
      3 C         140.5539  142.2472  166.1668 C.ar    1  UNL1        0.0849
      4 C         139.9321  140.9449  165.7574 C.ar    1  UNL1        0.0342
      5 C         139.0790  139.9617  166.5027 C.ar    1  UNL1        0.0141
      6 C         138.5932  138.7193  165.8171 C.ar    1  UNL1        0.0578
      7 CL        137.7400  137.7361  166.5624 Cl      1  UNL1       -0.0822
      8 C         138.9604  138.4599  164.3860 C.ar    1  UNL1        0.0129
      9 C         139.8136  139.4431  163.6407 C.ar    1  UNL1        0.0202
     10 C         140.2994  140.6856  164.3263 C.ar    1  UNL1        0.0871
     11 C         144.1804  142.2829  157.0356 C.3     1  UNL1        0.0137
     12 C         143.5922  142.1324  158.4072 C.3     1  UNL1        0.0932
     13 C         143.1559  143.5532  158.2046 C.3     1  UNL1        0.0137
     14 C         144.1514  140.7431  158.3231 C.2     1  UNL1        0.2302
     15 O         144.9110  140.1671  157.1651 O.2     1  UNL1       -0.2744
     16 N         143.8176  140.0310  159.6004 N.am    1  UNL1       -0.2692
     17 C         143.0521  140.9802  160.4739 C.ar    1  UNL1        0.1363
     18 N         142.4639  140.8297  161.8455 N.ar    1  UNL1       -0.1951
     19 C         141.7364  141.9780  162.4797 C.ar    1  UNL1        0.2553
     20 N         141.5970  143.2767  161.7422 N.ar    1  UNL1       -0.1957
     21 C         142.1852  143.4272  160.3706 C.ar    1  UNL1        0.1276
     22 N         142.0459  144.7260  159.6332 N.pl3   1  UNL1       -0.3427
     23 C         142.9127  142.2790  159.7365 C.ar    1  UNL1        0.0484
     24 H         144.0586  139.1035  159.8259 H       1  UNL1        0.1563
     25 H         141.5684  145.4796  160.0494 H       1  UNL1        0.1437
     26 H         142.4320  144.8248  158.7330 H       1  UNL1        0.1437
     27 C         140.4434  142.8909  167.5172 C.3     1  UNL1        0.0762
     28 C         141.0291  142.2140  168.7208 C.ar    1  UNL1        0.0113
     29 C         140.1278  141.6891  169.7989 C.ar    1  UNL1       -0.0017
     30 C         140.7136  141.0123  171.0025 C.ar    1  UNL1       -0.0002
     31 C         142.2006  140.8603  171.1281 C.ar    1  UNL1        0.0023
     32 C         143.1018  141.3852  170.0501 C.ar    1  UNL1        0.0293
     33 C         142.5161  142.0620  168.8464 C.ar    1  UNL1        0.1365
     34 F         143.4174  142.5869  167.7683 F       1  UNL1       -0.2045
@<TRIPOS>BOND
     1    11    12    1
     2    12    13    1
     3    12    14    1
     4    14    15    2
     5    14    16   am
     6    16    17    1
     7    17    18   ar
     8    18    19   ar
     9    19     1    1
    10     1     2   ar
    11     2     3   ar
    12     3    27    1
    13    27    28    1
    14    28    29   ar
    15    29    30   ar
    16    30    31   ar
    17    31    32   ar
    18    32    33   ar
    19    33    34    1
    20     3     4   ar
    21     4     5   ar
    22     5     6   ar
    23     6     7    1
    24     6     8   ar
    25     8     9   ar
    26     9    10   ar
    27    19    20   ar
    28    20    21   ar
    29    21    22    1
    30    21    23   ar
    31    23    12    1
    32    23    17   ar
    33    10     1   ar
    34    33    28   ar
    35    10     4   ar
    36    16    24    1
    37    22    25    1
    38    22    26    1
@<TRIPOS>MOLECULE
*****
 34 38 0 0 0
SMALL
GASTEIGER

@<TRIPOS>ATOM
      1 N         140.5132  142.6033  164.0487 N.ar    1  UNL1       -0.1967
      2 N         140.7781  143.3757  165.3069 N.ar    1  UNL1       -0.1666
      3 C         140.2651  142.5691  166.4628 C.ar    1  UNL1        0.0849
      4 C         139.6831  141.2980  165.9189 C.ar    1  UNL1        0.0342
      5 C         139.0332  140.1241  166.5894 C.ar    1  UNL1        0.0141
      6 C         138.5368  138.9714  165.7681 C.ar    1  UNL1        0.0578
      7 CL        137.8869  137.7974  166.4387 Cl      1  UNL1       -0.0822
      8 C         138.6902  138.9925  164.2760 C.ar    1  UNL1        0.0129
      9 C         139.3400  140.1664  163.6055 C.ar    1  UNL1        0.0202
     10 C         139.8364  141.3192  164.4269 C.ar    1  UNL1        0.0871
     11 C         142.4660  144.5390  157.0991 C.3     1  UNL1        0.0137
     12 C         142.1156  144.1038  158.4912 C.3     1  UNL1        0.0932
     13 C         141.1546  145.2544  158.4402 C.3     1  UNL1        0.0137
     14 C         143.1498  143.0442  158.2512 C.2     1  UNL1        0.2302
     15 O         143.9548  142.8655  156.9981 O.2     1  UNL1       -0.2744
     16 N         143.2377  142.1946  159.4842 N.am    1  UNL1       -0.2692
     17 C         142.2578  142.7291  160.4863 C.ar    1  UNL1        0.1363
     18 N         141.9075  142.2938  161.8783 N.ar    1  UNL1       -0.1951
     19 C         140.8636  143.0385  162.6566 C.ar    1  UNL1        0.2553
     20 N         140.1701  144.2185  162.0429 N.ar    1  UNL1       -0.1957
     21 C         140.5205  144.6538  160.6508 C.ar    1  UNL1        0.1276
     22 N         139.8270  145.8338  160.0371 N.pl3   1  UNL1       -0.3427
     23 C         141.5643  143.9091  159.8726 C.ar    1  UNL1        0.0484
     24 H         143.8338  141.4218  159.6132 H       1  UNL1        0.1563
     25 H         139.1418  146.3225  160.5479 H       1  UNL1        0.1437
     26 H         140.0569  146.1194  159.1234 H       1  UNL1        0.1437
     27 C         140.3237  142.9640  167.9087 C.3     1  UNL1        0.0762
     28 C         141.1182  142.1413  168.8792 C.ar    1  UNL1        0.0113
     29 C         142.6155  142.2315  168.8892 C.ar    1  UNL1       -0.0017
     30 C         143.4099  141.4089  169.8597 C.ar    1  UNL1       -0.0002
     31 C         142.7071  140.4960  170.8203 C.ar    1  UNL1        0.0023
     32 C         141.2099  140.4058  170.8103 C.ar    1  UNL1        0.0293
     33 C         140.4154  141.2285  169.8398 C.ar    1  UNL1        0.1365
     34 F         138.9182  141.1383  169.8298 F       1  UNL1       -0.2045
@<TRIPOS>BOND
     1    11    12    1
     2    12    13    1
     3    12    14    1
     4    14    15    2
     5    14    16   am
     6    16    17    1
     7    17    18   ar
     8    18    19   ar
     9    19     1    1
    10     1     2   ar
    11     2     3   ar
    12     3    27    1
    13    27    28    1
    14    28    29   ar
    15    29    30   ar
    16    30    31   ar
    17    31    32   ar
    18    32    33   ar
    19    33    34    1
    20     3     4   ar
    21     4     5   ar
    22     5     6   ar
    23     6     7    1
    24     6     8   ar
    25     8     9   ar
    26     9    10   ar
    27    19    20   ar
    28    20    21   ar
    29    21    22    1
    30    21    23   ar
    31    23    12    1
    32    23    17   ar
    33    10     1   ar
    34    33    28   ar
    35    10     4   ar
    36    16    24    1
    37    22    25    1
    38    22    26    1
@<TRIPOS>MOLECULE
*****
 34 38 0 0 0
SMALL
GASTEIGER

@<TRIPOS>ATOM
      1 N         140.7476  144.7789  158.1555 N.ar    1  UNL1       -0.1967
      2 N         141.0359  145.8871  157.1866 N.ar    1  UNL1       -0.1666
      3 C         140.0375  145.7988  156.0707 C.ar    1  UNL1        0.0849
      4 C         139.1321  144.6359  156.3499 C.ar    1  UNL1        0.0342
      5 C         137.9647  144.0695  155.5973 C.ar    1  UNL1        0.0141
      6 C         137.2362  142.8729  156.1331 C.ar    1  UNL1        0.0578
      7 CL        136.0687  142.3064  155.3805 Cl      1  UNL1       -0.0822
      8 C         137.6750  142.2425  157.4216 C.ar    1  UNL1        0.0129
      9 C         138.8424  142.8089  158.1742 C.ar    1  UNL1        0.0202
     10 C         139.5709  144.0056  157.6383 C.ar    1  UNL1        0.0871
     11 C         144.6877  143.1557  164.2953 C.3     1  UNL1        0.0137
     12 C         143.9320  143.4406  163.0312 C.3     1  UNL1        0.0932
     13 C         143.1573  144.3915  163.8947 C.3     1  UNL1        0.0137
     14 C         144.8647  142.4302  162.4321 C.2     1  UNL1        0.2302
     15 O         145.9483  141.6904  163.1591 O.2     1  UNL1       -0.2744
     16 N         144.5236  142.2893  160.9782 N.am    1  UNL1       -0.2692
     17 C         143.3800  143.2128  160.6788 C.ar    1  UNL1        0.1363
     18 N         142.6244  143.4976  159.4147 N.ar    1  UNL1       -0.1951
     19 C         141.5032  144.4940  159.4196 C.ar    1  UNL1        0.2553
     20 N         141.1376  145.2055  160.6884 N.ar    1  UNL1       -0.1957
     21 C         141.8932  144.9207  161.9525 C.ar    1  UNL1        0.1276
     22 N         141.5276  145.6322  163.2214 N.pl3   1  UNL1       -0.3427
     23 C         143.0144  143.9243  161.9477 C.ar    1  UNL1        0.0484
     24 H         144.9716  141.6952  160.3336 H       1  UNL1        0.1563
     25 H         140.7917  146.2862  163.2245 H       1  UNL1        0.1437
     26 H         142.0235  145.4453  164.0510 H       1  UNL1        0.1437
     27 C         139.9584  146.7128  154.8839 C.3     1  UNL1        0.0762
     28 C         139.5165  148.1352  155.0610 C.ar    1  UNL1        0.0113
     29 C         138.7137  148.5267  156.2661 C.ar    1  UNL1       -0.0017
     30 C         138.2718  149.9491  156.4431 C.ar    1  UNL1       -0.0002
     31 C         138.6326  150.9800  155.4150 C.ar    1  UNL1        0.0023
     32 C         139.4353  150.5885  154.2100 C.ar    1  UNL1        0.0293
     33 C         139.8773  149.1661  154.0329 C.ar    1  UNL1        0.1365
     34 F         140.6800  148.7746  152.8278 F       1  UNL1       -0.2045
@<TRIPOS>BOND
     1    11    12    1
     2    12    13    1
     3    12    14    1
     4    14    15    2
     5    14    16   am
     6    16    17    1
     7    17    18   ar
     8    18    19   ar
     9    19     1    1
    10     1     2   ar
    11     2     3   ar
    12     3    27    1
    13    27    28    1
    14    28    29   ar
    15    29    30   ar
    16    30    31   ar
    17    31    32   ar
    18    32    33   ar
    19    33    34    1
    20     3     4   ar
    21     4     5   ar
    22     5     6   ar
    23     6     7    1
    24     6     8   ar
    25     8     9   ar
    26     9    10   ar
    27    19    20   ar
    28    20    21   ar
    29    21    22    1
    30    21    23   ar
    31    23    12    1
    32    23    17   ar
    33    10     1   ar
    34    33    28   ar
    35    10     4   ar
    36    16    24    1
    37    22    25    1
    38    22    26    1
@<TRIPOS>MOLECULE
*****
 34 38 0 0 0
SMALL
GASTEIGER

@<TRIPOS>ATOM
      1 N         141.1510  143.1963  161.6415 N.ar    1  UNL1       -0.1967
      2 N         140.2858  143.4914  162.8308 N.ar    1  UNL1       -0.1666
      3 C         140.8702  142.7827  164.0165 C.ar    1  UNL1        0.0849
      4 C         142.0967  142.0495  163.5601 C.ar    1  UNL1        0.0342
      5 C         143.0780  141.1821  164.2914 C.ar    1  UNL1        0.0141
      6 C         144.2326  140.5704  163.5549 C.ar    1  UNL1        0.0578
      7 CL        145.2139  139.7030  164.2863 Cl      1  UNL1       -0.0822
      8 C         144.4062  140.8261  162.0870 C.ar    1  UNL1        0.0129
      9 C         143.4249  141.6935  161.3557 C.ar    1  UNL1        0.0202
     10 C         142.2702  142.3052  162.0922 C.ar    1  UNL1        0.0871
     11 C         139.8314  145.5289  154.6648 C.3     1  UNL1        0.0137
     12 C         140.0475  145.0219  156.0599 C.3     1  UNL1        0.0932
     13 C         141.1918  145.9916  156.0665 C.3     1  UNL1        0.0137
     14 C         138.8580  144.1581  155.7615 C.2     1  UNL1        0.2302
     15 O         138.0842  144.1363  154.4767 O.2     1  UNL1       -0.2744
     16 N         138.5782  143.3200  156.9736 N.am    1  UNL1       -0.2692
     17 C         139.5947  143.6657  158.0211 C.ar    1  UNL1        0.1363
     18 N         139.8107  143.1586  159.4161 N.ar    1  UNL1       -0.1951
     19 C         140.9349  143.7034  160.2464 C.ar    1  UNL1        0.2553
     20 N         141.8430  144.7552  159.6816 N.ar    1  UNL1       -0.1957
     21 C         141.6270  145.2623  158.2866 C.ar    1  UNL1        0.1276
     22 N         142.5351  146.3142  157.7219 N.pl3   1  UNL1       -0.3427
     23 C         140.5028  144.7175  157.4563 C.ar    1  UNL1        0.0484
     24 H         137.8544  142.6590  157.0656 H       1  UNL1        0.1563
     25 H         143.2729  146.6717  158.2668 H       1  UNL1        0.1437
     26 H         142.3933  146.6470  156.8062 H       1  UNL1        0.1437
     27 C         140.3242  142.8034  165.4134 C.3     1  UNL1        0.0762
     28 C         139.6979  141.5694  165.9922 C.ar    1  UNL1        0.0113
     29 C         138.7485  140.7524  165.1668 C.ar    1  UNL1       -0.0017
     30 C         138.1223  139.5185  165.7457 C.ar    1  UNL1       -0.0002
     31 C         138.4453  139.1015  167.1498 C.ar    1  UNL1        0.0023
     32 C         139.3947  139.9184  167.9752 C.ar    1  UNL1        0.0293
     33 C         140.0209  141.1524  167.3964 C.ar    1  UNL1        0.1365
     34 F         140.9703  141.9694  168.2218 F       1  UNL1       -0.2045
@<TRIPOS>BOND
     1    11    12    1
     2    12    13    1
     3    12    14    1
     4    14    15    2
     5    14    16   am
     6    16    17    1
     7    17    18   ar
     8    18    19   ar
     9    19     1    1
    10     1     2   ar
    11     2     3   ar
    12     3    27    1
    13    27    28    1
    14    28    29   ar
    15    29    30   ar
    16    30    31   ar
    17    31    32   ar
    18    32    33   ar
    19    33    34    1
    20     3     4   ar
    21     4     5   ar
    22     5     6   ar
    23     6     7    1
    24     6     8   ar
    25     8     9   ar
    26     9    10   ar
    27    19    20   ar
    28    20    21   ar
    29    21    22    1
    30    21    23   ar
    31    23    12    1
    32    23    17   ar
    33    10     1   ar
    34    33    28   ar
    35    10     4   ar
    36    16    24    1
    37    22    25    1
    38    22    26    1
@<TRIPOS>MOLECULE
*****
 34 38 0 0 0
SMALL
GASTEIGER

@<TRIPOS>ATOM
      1 N         143.9264  142.3147  160.6397 N.ar    1  UNL1       -0.1967
      2 N         143.2987  143.6114  161.0578 N.ar    1  UNL1       -0.1666
      3 C         142.8979  143.4892  162.4980 C.ar    1  UNL1        0.0849
      4 C         143.2778  142.1170  162.9701 C.ar    1  UNL1        0.0342
      5 C         143.1271  141.4347  164.2973 C.ar    1  UNL1        0.0141
      6 C         143.6119  140.0266  164.4761 C.ar    1  UNL1        0.0578
      7 CL        143.4611  139.3442  165.8035 Cl      1  UNL1       -0.0822
      8 C         144.2475  139.3006  163.3276 C.ar    1  UNL1        0.0129
      9 C         144.3983  139.9830  162.0003 C.ar    1  UNL1        0.0202
     10 C         143.9134  141.3911  161.8215 C.ar    1  UNL1        0.0871
     11 C         146.8240  140.9853  153.8800 C.3     1  UNL1        0.0137
     12 C         146.2791  141.3026  155.2411 C.3     1  UNL1        0.0932
     13 C         145.4502  140.0715  155.0235 C.3     1  UNL1        0.0137
     14 C         147.2219  142.4673  155.1741 C.2     1  UNL1        0.2302
     15 O         148.1392  142.7947  154.0332 O.2     1  UNL1       -0.2744
     16 N         147.0865  143.2472  156.4482 N.am    1  UNL1       -0.2692
     17 C         146.0599  142.5644  157.3027 C.ar    1  UNL1        0.1363
     18 N         145.5151  142.8818  158.6637 N.ar    1  UNL1       -0.1951
     19 C         144.4713  141.9973  159.2786 C.ar    1  UNL1        0.2553
     20 N         143.9723  140.7955  158.5325 N.ar    1  UNL1       -0.1957
     21 C         144.5171  140.4781  157.1715 C.ar    1  UNL1        0.1276
     22 N         144.0182  139.2763  156.4254 N.pl3   1  UNL1       -0.3427
     23 C         145.5609  141.3626  156.5566 C.ar    1  UNL1        0.0484
     24 H         147.5840  144.0637  156.6826 H       1  UNL1        0.1563
     25 H         143.3331  138.6958  156.8290 H       1  UNL1        0.1437
     26 H         144.3758  139.0680  155.5321 H       1  UNL1        0.1437
     27 C         142.2338  144.5525  163.3216 C.3     1  UNL1        0.0762
     28 C         140.7813  144.4294  163.6752 C.ar    1  UNL1        0.0113
     29 C         140.3792  143.9607  165.0422 C.ar    1  UNL1       -0.0017
     30 C         138.9267  143.8377  165.3957 C.ar    1  UNL1       -0.0002
     31 C         137.8763  144.1832  164.3822 C.ar    1  UNL1        0.0023
     32 C         138.2783  144.6519  163.0153 C.ar    1  UNL1        0.0293
     33 C         139.7308  144.7750  162.6617 C.ar    1  UNL1        0.1365
     34 F         140.1329  145.2436  161.2947 F       1  UNL1       -0.2045
@<TRIPOS>BOND
     1    11    12    1
     2    12    13    1
     3    12    14    1
     4    14    15    2
     5    14    16   am
     6    16    17    1
     7    17    18   ar
     8    18    19   ar
     9    19     1    1
    10     1     2   ar
    11     2     3   ar
    12     3    27    1
    13    27    28    1
    14    28    29   ar
    15    29    30   ar
    16    30    31   ar
    17    31    32   ar
    18    32    33   ar
    19    33    34    1
    20     3     4   ar
    21     4     5   ar
    22     5     6   ar
    23     6     7    1
    24     6     8   ar
    25     8     9   ar
    26     9    10   ar
    27    19    20   ar
    28    20    21   ar
    29    21    22    1
    30    21    23   ar
    31    23    12    1
    32    23    17   ar
    33    10     1   ar
    34    33    28   ar
    35    10     4   ar
    36    16    24    1
    37    22    25    1
    38    22    26    1
@<TRIPOS>MOLECULE
*****
 34 38 0 0 0
SMALL
GASTEIGER

@<TRIPOS>ATOM
      1 N         139.7528  138.9376  160.9512 N.ar    1  UNL1       -0.1967
      2 N         139.7138  138.0092  162.1288 N.ar    1  UNL1       -0.1666
      3 C         139.1468  138.7631  163.2950 C.ar    1  UNL1        0.0849
      4 C         138.8353  140.1576  162.8381 C.ar    1  UNL1        0.0342
      5 C         138.2590  141.3431  163.5540 C.ar    1  UNL1        0.0141
      6 C         138.0572  142.6363  162.8214 C.ar    1  UNL1        0.0578
      7 CL        137.4809  143.8218  163.5373 Cl      1  UNL1       -0.0822
      8 C         138.4317  142.7441  161.3728 C.ar    1  UNL1        0.0129
      9 C         139.0080  141.5586  160.6570 C.ar    1  UNL1        0.0202
     10 C         139.2098  140.2653  161.3897 C.ar    1  UNL1        0.0871
     11 C         141.9331  137.1428  154.0315 C.3     1  UNL1        0.0137
     12 C         141.4380  137.4826  155.4062 C.3     1  UNL1        0.0932
     13 C         142.8485  137.9414  155.6296 C.3     1  UNL1        0.0137
     14 C         140.1310  136.9527  154.8953 C.2     1  UNL1        0.2302
     15 O         139.8766  136.4100  153.5203 O.2     1  UNL1       -0.2744
     16 N         139.1231  137.0610  156.0009 N.am    1  UNL1       -0.2692
     17 C         139.8072  137.6577  157.1951 C.ar    1  UNL1        0.1363
     18 N         139.3121  137.9974  158.5696 N.ar    1  UNL1       -0.1951
     19 C         140.2478  138.5978  159.5766 C.ar    1  UNL1        0.2553
     20 N         141.6785  138.8584  159.2090 N.ar    1  UNL1       -0.1957
     21 C         142.1736  138.5186  157.8345 C.ar    1  UNL1        0.1276
     22 N         143.6043  138.7792  157.4669 N.pl3   1  UNL1       -0.3427
     23 C         141.2379  137.9183  156.8275 C.ar    1  UNL1        0.0484
     24 H         138.1785  136.7882  155.9515 H       1  UNL1        0.1563
     25 H         144.2184  139.1733  158.1278 H       1  UNL1        0.1437
     26 H         143.9292  138.5562  156.5647 H       1  UNL1        0.1437
     27 C         138.9294  138.2184  164.6755 C.3     1  UNL1        0.0762
     28 C         139.5435  138.9064  165.8585 C.ar    1  UNL1        0.0113
     29 C         141.0020  139.2569  165.8486 C.ar    1  UNL1       -0.0017
     30 C         141.6160  139.9448  167.0316 C.ar    1  UNL1       -0.0002
     31 C         140.7717  140.2824  168.2245 C.ar    1  UNL1        0.0023
     32 C         139.3133  139.9320  168.2344 C.ar    1  UNL1        0.0293
     33 C         138.6992  139.2440  167.0514 C.ar    1  UNL1        0.1365
     34 F         137.2407  138.8936  167.0614 F       1  UNL1       -0.2045
@<TRIPOS>BOND
     1    11    12    1
     2    12    13    1
     3    12    14    1
     4    14    15    2
     5    14    16   am
     6    16    17    1
     7    17    18   ar
     8    18    19   ar
     9    19     1    1
    10     1     2   ar
    11     2     3   ar
    12     3    27    1
    13    27    28    1
    14    28    29   ar
    15    29    30   ar
    16    30    31   ar
    17    31    32   ar
    18    32    33   ar
    19    33    34    1
    20     3     4   ar
    21     4     5   ar
    22     5     6   ar
    23     6     7    1
    24     6     8   ar
    25     8     9   ar
    26     9    10   ar
    27    19    20   ar
    28    20    21   ar
    29    21    22    1
    30    21    23   ar
    31    23    12    1
    32    23    17   ar
    33    10     1   ar
    34    33    28   ar
    35    10     4   ar
    36    16    24    1
    37    22    25    1
    38    22    26    1
@<TRIPOS>MOLECULE
*****
 34 38 0 0 0
SMALL
GASTEIGER

@<TRIPOS>ATOM
      1 N         142.6400  138.8263  160.3006 N.ar    1  UNL1       -0.1967
      2 N         143.8734  139.6588  160.4894 N.ar    1  UNL1       -0.1666
      3 C         143.9210  140.0985  161.9227 C.ar    1  UNL1        0.0849
      4 C         142.7169  139.5377  162.6197 C.ar    1  UNL1        0.0342
      5 C         142.2390  139.6414  164.0378 C.ar    1  UNL1        0.0141
      6 C         140.9697  138.9589  164.4533 C.ar    1  UNL1        0.0578
      7 CL        140.4918  139.0626  165.8714 Cl      1  UNL1       -0.0822
      8 C         140.1780  138.1726  163.4507 C.ar    1  UNL1        0.0129
      9 C         140.6558  138.0689  162.0327 C.ar    1  UNL1        0.0202
     10 C         141.9253  138.7515  161.6172 C.ar    1  UNL1        0.0871
     11 C         140.7144  135.4634  153.9100 C.3     1  UNL1        0.0137
     12 C         141.1555  136.1079  155.1906 C.3     1  UNL1        0.0932
     13 C         139.8158  136.7798  155.1304 C.3     1  UNL1        0.0137
     14 C         142.4030  135.3013  154.9832 C.2     1  UNL1        0.2302
     15 O         142.6713  134.3715  153.8371 O.2     1  UNL1       -0.2744
     16 N         143.3351  135.5877  156.1230 N.am    1  UNL1       -0.2692
     17 C         142.6636  136.5714  157.0349 C.ar    1  UNL1        0.1363
     18 N         143.1048  137.2158  158.3155 N.ar    1  UNL1       -0.1951
     19 C         142.1989  138.1818  159.0199 C.ar    1  UNL1        0.2553
     20 N         140.8518  138.5033  158.4437 N.ar    1  UNL1       -0.1957
     21 C         140.4107  137.8588  157.1631 C.ar    1  UNL1        0.1276
     22 N         139.0636  138.1803  156.5868 N.pl3   1  UNL1       -0.3427
     23 C         141.3166  136.8929  156.4587 C.ar    1  UNL1        0.0484
     24 H         144.2304  135.1984  156.2502 H       1  UNL1        0.1563
     25 H         138.4690  138.8144  157.0492 H       1  UNL1        0.1437
     26 H         138.7740  137.7573  155.7463 H       1  UNL1        0.1437
     27 C         144.9856  140.9496  162.5491 C.3     1  UNL1        0.0762
     28 C         144.6261  142.2715  163.1601 C.ar    1  UNL1        0.0113
     29 C         144.7162  142.4605  164.6454 C.ar    1  UNL1       -0.0017
     30 C         144.3567  143.7824  165.2563 C.ar    1  UNL1       -0.0002
     31 C         143.9070  144.9152  164.3820 C.ar    1  UNL1        0.0023
     32 C         143.8169  144.7262  162.8967 C.ar    1  UNL1        0.0293
     33 C         144.1764  143.4043  162.2858 C.ar    1  UNL1        0.1365
     34 F         144.0862  143.2152  160.8004 F       1  UNL1       -0.2045
@<TRIPOS>BOND
     1    11    12    1
     2    12    13    1
     3    12    14    1
     4    14    15    2
     5    14    16   am
     6    16    17    1
     7    17    18   ar
     8    18    19   ar
     9    19     1    1
    10     1     2   ar
    11     2     3   ar
    12     3    27    1
    13    27    28    1
    14    28    29   ar
    15    29    30   ar
    16    30    31   ar
    17    31    32   ar
    18    32    33   ar
    19    33    34    1
    20     3     4   ar
    21     4     5   ar
    22     5     6   ar
    23     6     7    1
    24     6     8   ar
    25     8     9   ar
    26     9    10   ar
    27    19    20   ar
    28    20    21   ar
    29    21    22    1
    30    21    23   ar
    31    23    12    1
    32    23    17   ar
    33    10     1   ar
    34    33    28   ar
    35    10     4   ar
    36    16    24    1
    37    22    25    1
    38    22    26    1
