@<TRIPOS>MOLECULE
*****
 32 36 0 0 0
SMALL
GASTEIGER

@<TRIPOS>ATOM
      1 C         142.0762  142.0754  167.1984 C.3     1  UNL1        0.0437
      2 C         141.3036  142.8674  166.1856 C.3     1  UNL1        0.1352
      3 C         140.3013  142.8225  167.3006 C.3     1  UNL1        0.0437
      4 O         140.1830  143.6438  165.5600 O.3     1  UNL1       -0.4828
      5 C         140.3330  144.1901  164.1710 C.ar    1  UNL1        0.1361
      6 C         139.2124  144.9665  163.5454 C.ar    1  UNL1        0.0379
      7 C         139.3624  145.5128  162.1564 C.ar    1  UNL1        0.0178
      8 C         140.6330  145.2827  161.3932 C.ar    1  UNL1        0.0505
      9 C         141.7536  144.5062  162.0188 C.ar    1  UNL1        0.0153
     10 C         141.6036  143.9600  163.4077 C.ar    1  UNL1        0.0367
     11 C         142.7243  143.1836  164.0334 C.3     1  UNL1        0.1535
     12 C         143.0177  143.6661  162.6437 C.3     1  UNL1        0.2349
     13 O         144.3993  143.2113  162.2773 O.2     1  UNL1       -0.4478
     14 C         144.9597  142.4476  163.4404 C.2     1  UNL1        0.2770
     15 N         146.3170  141.8126  163.5065 N.pl3   1  UNL1       -0.3133
     16 N         143.9245  142.4305  164.5257 N.2     1  UNL1       -0.2204
     17 C         142.5742  142.6373  165.4223 C.3     1  UNL1        0.0597
     18 C         143.9548  142.0562  165.3428 C.3     1  UNL1        0.0058
     19 C         143.1346  141.8736  166.5854 C.3     1  UNL1        0.0058
     20 H         146.9292  141.8785  162.7383 H       1  UNL1        0.1466
     21 H         146.5957  141.3299  164.3180 H       1  UNL1        0.1466
     22 N         140.7830  145.8289  160.0043 N.am    1  UNL1       -0.2791
     23 C         140.1472  145.1185  158.8462 C.2     1  UNL1        0.2672
     24 O         139.3615  143.8619  159.0770 O.2     1  UNL1       -0.2682
     25 H         141.2987  146.6537  159.8528 H       1  UNL1        0.1552
     26 C         140.2972  145.6648  157.4573 C.ar    1  UNL1        0.1349
     27 C         141.3215  145.0826  156.5290 C.ar    1  UNL1        0.0261
     28 C         141.4715  145.6289  155.1400 C.ar    1  UNL1        0.0329
     29 C         140.5972  146.7574  154.6795 C.ar    1  UNL1        0.1592
     30 F         140.7472  147.3036  153.2906 F       1  UNL1       -0.2025
     31 C         139.5729  147.3396  155.6079 C.ar    1  UNL1        0.1285
     32 N         139.4229  146.7933  156.9967 N.ar    1  UNL1       -0.2369
@<TRIPOS>BOND
     1     1     2    1
     2     2     3    1
     3     2     4    1
     4     4     5    1
     5     5     6   ar
     6     6     7   ar
     7     7     8   ar
     8     8    22    1
     9    22    23   am
    10    23    24    2
    11    23    26    1
    12    26    27   ar
    13    27    28   ar
    14    28    29   ar
    15    29    30    1
    16    29    31   ar
    17    31    32   ar
    18     8     9   ar
    19     9    10   ar
    20    10    11    1
    21    11    12    1
    22    12    13    1
    23    13    14    1
    24    14    15    1
    25    14    16    2
    26    11    17    1
    27    17    18    1
    28    18    19    1
    29    17     2    1
    30    10     5   ar
    31    16    11    1
    32    19    17    1
    33    32    26   ar
    34    22    25    1
    35    15    20    1
    36    15    21    1
@<TRIPOS>MOLECULE
*****
 32 36 0 0 0
SMALL
GASTEIGER

@<TRIPOS>ATOM
      1 C         140.0276  141.4520  169.9482 C.3     1  UNL1        0.0437
      2 C         140.5972  141.7308  168.5889 C.3     1  UNL1        0.1352
      3 C         141.3512  142.7428  169.3998 C.3     1  UNL1        0.0437
      4 O         141.4287  142.3611  167.5112 O.3     1  UNL1       -0.4828
      5 C         141.3084  141.8826  166.0946 C.ar    1  UNL1        0.1361
      6 C         142.1399  142.5128  165.0169 C.ar    1  UNL1        0.0379
      7 C         142.0196  142.0343  163.6003 C.ar    1  UNL1        0.0178
      8 C         141.0678  140.9256  163.2615 C.ar    1  UNL1        0.0505
      9 C         140.2363  140.2953  164.3393 C.ar    1  UNL1        0.0153
     10 C         140.3566  140.7738  165.7558 C.ar    1  UNL1        0.0367
     11 C         139.5251  140.1436  166.8335 C.3     1  UNL1        0.1535
     12 C         139.2979  139.5627  165.4693 C.3     1  UNL1        0.2349
     13 O         138.2659  138.4812  165.5921 O.2     1  UNL1       -0.4478
     14 C         137.8552  138.3936  167.0321 C.2     1  UNL1        0.2770
     15 N         136.8439  137.4451  167.6043 N.pl3   1  UNL1       -0.3133
     16 N         138.6335  139.4210  167.7993 N.2     1  UNL1       -0.2204
     17 C         139.6454  140.6221  168.2500 C.3     1  UNL1        0.0597
     18 C         138.6159  139.6181  168.6766 C.3     1  UNL1        0.0058
     19 C         139.2348  140.5345  169.6901 C.3     1  UNL1        0.0058
     20 H         136.3828  136.8037  167.0167 H       1  UNL1        0.1466
     21 H         136.6411  137.4639  168.5676 H       1  UNL1        0.1466
     22 N         140.9475  140.4471  161.8450 N.am    1  UNL1       -0.2791
     23 C         141.5583  139.1379  161.4412 C.2     1  UNL1        0.2672
     24 O         142.2894  138.3073  162.4538 O.2     1  UNL1       -0.2682
     25 H         140.4677  140.9922  161.1804 H       1  UNL1        0.1552
     26 C         141.4380  138.6594  160.0247 C.ar    1  UNL1        0.1349
     27 C         140.1002  138.6529  159.3463 C.ar    1  UNL1        0.0261
     28 C         139.9799  138.1743  157.9297 C.ar    1  UNL1        0.0329
     29 C         141.1975  137.7024  157.1916 C.ar    1  UNL1        0.1592
     30 F         141.0772  137.2239  155.7751 F       1  UNL1       -0.2025
     31 C         142.5353  137.7090  157.8700 C.ar    1  UNL1        0.1285
     32 N         142.6556  138.1875  159.2864 N.ar    1  UNL1       -0.2369
@<TRIPOS>BOND
     1     1     2    1
     2     2     3    1
     3     2     4    1
     4     4     5    1
     5     5     6   ar
     6     6     7   ar
     7     7     8   ar
     8     8    22    1
     9    22    23   am
    10    23    24    2
    11    23    26    1
    12    26    27   ar
    13    27    28   ar
    14    28    29   ar
    15    29    30    1
    16    29    31   ar
    17    31    32   ar
    18     8     9   ar
    19     9    10   ar
    20    10    11    1
    21    11    12    1
    22    12    13    1
    23    13    14    1
    24    14    15    1
    25    14    16    2
    26    11    17    1
    27    17    18    1
    28    18    19    1
    29    17     2    1
    30    10     5   ar
    31    16    11    1
    32    19    17    1
    33    32    26   ar
    34    22    25    1
    35    15    20    1
    36    15    21    1
@<TRIPOS>MOLECULE
*****
 32 36 0 0 0
SMALL
GASTEIGER

@<TRIPOS>ATOM
      1 C         140.1079  141.3386  169.9928 C.3     1  UNL1        0.0437
      2 C         140.4600  141.8870  168.6418 C.3     1  UNL1        0.1352
      3 C         141.2023  142.8533  169.5167 C.3     1  UNL1        0.0437
      4 O         141.0699  142.7710  167.5946 O.3     1  UNL1       -0.4828
      5 C         140.8153  142.4982  166.1417 C.ar    1  UNL1        0.1361
      6 C         141.4252  143.3822  165.0946 C.ar    1  UNL1        0.0379
      7 C         141.1706  143.1095  163.6417 C.ar    1  UNL1        0.0178
      8 C         140.3061  141.9528  163.2360 C.ar    1  UNL1        0.0505
      9 C         139.6962  141.0687  164.2832 C.ar    1  UNL1        0.0153
     10 C         139.9508  141.3415  165.7360 C.ar    1  UNL1        0.0367
     11 C         139.3409  140.4575  166.7833 C.3     1  UNL1        0.1535
     12 C         138.9987  140.0631  165.3770 C.3     1  UNL1        0.2349
     13 O         138.1132  138.8540  165.4373 O.2     1  UNL1       -0.4478
     14 C         137.9080  138.5011  166.8807 C.2     1  UNL1        0.2770
     15 N         137.0880  137.3578  167.4008 N.pl3   1  UNL1       -0.3133
     16 N         138.6668  139.4921  167.7125 N.2     1  UNL1       -0.2204
     17 C         139.5955  140.7303  168.2361 C.3     1  UNL1        0.0597
     18 C         138.7443  139.5521  168.6065 C.3     1  UNL1        0.0058
     19 C         139.3904  140.3774  169.6795 C.3     1  UNL1        0.0058
     20 H         136.6245  136.7584  166.7722 H       1  UNL1        0.1466
     21 H         137.0134  137.2067  168.3708 H       1  UNL1        0.1466
     22 N         140.0515  141.6800  161.7832 N.am    1  UNL1       -0.2791
     23 C         139.0246  142.4805  161.0385 C.2     1  UNL1        0.2672
     24 O         138.2522  143.5538  161.7467 O.2     1  UNL1       -0.2682
     25 H         140.5585  140.9756  161.3184 H       1  UNL1        0.1552
     26 C         138.7700  142.2077  159.5857 C.ar    1  UNL1        0.1349
     27 C         139.1772  143.2144  158.5510 C.ar    1  UNL1        0.0261
     28 C         138.9226  142.9416  157.0981 C.ar    1  UNL1        0.0329
     29 C         138.2607  141.6622  156.6800 C.ar    1  UNL1        0.1592
     30 F         138.0061  141.3894  155.2272 F       1  UNL1       -0.2025
     31 C         137.8534  140.6555  157.7147 C.ar    1  UNL1        0.1285
     32 N         138.1081  140.9282  159.1675 N.ar    1  UNL1       -0.2369
@<TRIPOS>BOND
     1     1     2    1
     2     2     3    1
     3     2     4    1
     4     4     5    1
     5     5     6   ar
     6     6     7   ar
     7     7     8   ar
     8     8    22    1
     9    22    23   am
    10    23    24    2
    11    23    26    1
    12    26    27   ar
    13    27    28   ar
    14    28    29   ar
    15    29    30    1
    16    29    31   ar
    17    31    32   ar
    18     8     9   ar
    19     9    10   ar
    20    10    11    1
    21    11    12    1
    22    12    13    1
    23    13    14    1
    24    14    15    1
    25    14    16    2
    26    11    17    1
    27    17    18    1
    28    18    19    1
    29    17     2    1
    30    10     5   ar
    31    16    11    1
    32    19    17    1
    33    32    26   ar
    34    22    25    1
    35    15    20    1
    36    15    21    1
@<TRIPOS>MOLECULE
*****
 32 36 0 0 0
SMALL
GASTEIGER

@<TRIPOS>ATOM
      1 C         142.3844  141.0427  170.2581 C.3     1  UNL1        0.0437
      2 C         142.8555  141.7116  169.0009 C.3     1  UNL1        0.1352
      3 C         143.9011  142.1961  169.9612 C.3     1  UNL1        0.0437
      4 O         143.6897  142.5488  168.0772 O.3     1  UNL1       -0.4828
      5 C         143.3148  142.6692  166.6297 C.ar    1  UNL1        0.1361
      6 C         144.1490  143.5063  165.7061 C.ar    1  UNL1        0.0379
      7 C         143.7740  143.6267  164.2586 C.ar    1  UNL1        0.0178
      8 C         142.5649  142.9099  163.7350 C.ar    1  UNL1        0.0505
      9 C         141.7307  142.0728  164.6587 C.ar    1  UNL1        0.0153
     10 C         142.1056  141.9524  166.1061 C.ar    1  UNL1        0.0367
     11 C         141.2714  141.1152  167.0299 C.3     1  UNL1        0.1535
     12 C         140.7752  141.1412  165.6145 C.3     1  UNL1        0.2349
     13 O         139.5433  140.2887  165.5396 O.2     1  UNL1       -0.4478
     14 C         139.2782  139.7359  166.9086 C.2     1  UNL1        0.2770
     15 N         138.1441  138.8311  167.2895 N.pl3   1  UNL1       -0.3133
     16 N         140.3461  140.2467  167.8296 N.2     1  UNL1       -0.2204
     17 C         141.6463  140.9949  168.4772 C.3     1  UNL1        0.0597
     18 C         140.4666  140.0977  168.7082 C.3     1  UNL1        0.0058
     19 C         141.3812  140.4420  169.8462 C.3     1  UNL1        0.0058
     20 H         137.4899  138.5489  166.6100 H       1  UNL1        0.1466
     21 H         138.0539  138.5193  168.2190 H       1  UNL1        0.1466
     22 N         142.1900  143.0303  162.2876 N.am    1  UNL1       -0.2791
     23 C         141.4471  144.2402  161.8034 C.2     1  UNL1        0.2672
     24 O         141.0793  145.3296  162.7665 O.2     1  UNL1       -0.2682
     25 H         142.4314  142.3152  161.6554 H       1  UNL1        0.1552
     26 C         141.0722  144.3605  160.3560 C.ar    1  UNL1        0.1349
     27 C         139.9674  143.5154  159.7946 C.ar    1  UNL1        0.0261
     28 C         139.5925  143.6358  158.3472 C.ar    1  UNL1        0.0329
     29 C         140.3223  144.6013  157.4612 C.ar    1  UNL1        0.1592
     30 F         139.9474  144.7217  156.0139 F       1  UNL1       -0.2025
     31 C         141.4271  145.4465  158.0226 C.ar    1  UNL1        0.1285
     32 N         141.8021  145.3261  159.4699 N.ar    1  UNL1       -0.2369
@<TRIPOS>BOND
     1     1     2    1
     2     2     3    1
     3     2     4    1
     4     4     5    1
     5     5     6   ar
     6     6     7   ar
     7     7     8   ar
     8     8    22    1
     9    22    23   am
    10    23    24    2
    11    23    26    1
    12    26    27   ar
    13    27    28   ar
    14    28    29   ar
    15    29    30    1
    16    29    31   ar
    17    31    32   ar
    18     8     9   ar
    19     9    10   ar
    20    10    11    1
    21    11    12    1
    22    12    13    1
    23    13    14    1
    24    14    15    1
    25    14    16    2
    26    11    17    1
    27    17    18    1
    28    18    19    1
    29    17     2    1
    30    10     5   ar
    31    16    11    1
    32    19    17    1
    33    32    26   ar
    34    22    25    1
    35    15    20    1
    36    15    21    1
@<TRIPOS>MOLECULE
*****
 32 36 0 0 0
SMALL
GASTEIGER

@<TRIPOS>ATOM
      1 C         139.6895  140.0684  166.9002 C.3     1  UNL1        0.0437
      2 C         139.8723  141.3466  166.1368 C.3     1  UNL1        0.1352
      3 C         140.2740  141.8027  167.5082 C.3     1  UNL1        0.0437
      4 O         140.1946  142.7832  165.8497 O.3     1  UNL1       -0.4828
      5 C         140.0517  143.3199  164.4563 C.ar    1  UNL1        0.1361
      6 C         140.3739  144.7564  164.1692 C.ar    1  UNL1        0.0379
      7 C         140.2310  145.2932  162.7757 C.ar    1  UNL1        0.0178
      8 C         139.7659  144.3933  161.6695 C.ar    1  UNL1        0.0505
      9 C         139.4436  142.9567  161.9566 C.ar    1  UNL1        0.0153
     10 C         139.5865  142.4200  163.3500 C.ar    1  UNL1        0.0367
     11 C         139.2642  140.9834  163.6372 C.3     1  UNL1        0.1535
     12 C         139.0745  141.3762  162.2019 C.3     1  UNL1        0.2349
     13 O         138.6001  140.1683  161.4497 O.2     1  UNL1       -0.4478
     14 C         138.4966  139.0291  162.4200 C.2     1  UNL1        0.2770
     15 N         138.0593  137.6314  162.0952 N.pl3   1  UNL1       -0.3133
     16 N         138.9070  139.5328  163.7718 N.2     1  UNL1       -0.2204
     17 C         139.4071  140.4468  165.0305 C.3     1  UNL1        0.0597
     18 C         138.9525  139.0979  164.5576 C.3     1  UNL1        0.0058
     19 C         139.3035  139.3075  166.0008 C.3     1  UNL1        0.0058
     20 H         137.8081  137.3961  161.1728 H       1  UNL1        0.1466
     21 H         138.0236  136.9495  162.8043 H       1  UNL1        0.1466
     22 N         139.6229  144.9299  160.2761 N.am    1  UNL1       -0.2791
     23 C         140.8351  145.0959  159.4083 C.2     1  UNL1        0.2672
     24 O         142.1902  144.7252  159.9339 O.2     1  UNL1       -0.2682
     25 H         138.7335  145.1733  159.9311 H       1  UNL1        0.1552
     26 C         140.6922  145.6326  158.0149 C.ar    1  UNL1        0.1349
     27 C         141.6431  145.1938  156.9410 C.ar    1  UNL1        0.0261
     28 C         141.5001  145.7305  155.5476 C.ar    1  UNL1        0.0329
     29 C         140.4063  146.7059  155.2281 C.ar    1  UNL1        0.1592
     30 F         140.2634  147.2426  153.8348 F       1  UNL1       -0.2025
     31 C         139.4555  147.1447  156.3020 C.ar    1  UNL1        0.1285
     32 N         139.5984  146.6081  157.6954 N.ar    1  UNL1       -0.2369
@<TRIPOS>BOND
     1     1     2    1
     2     2     3    1
     3     2     4    1
     4     4     5    1
     5     5     6   ar
     6     6     7   ar
     7     7     8   ar
     8     8    22    1
     9    22    23   am
    10    23    24    2
    11    23    26    1
    12    26    27   ar
    13    27    28   ar
    14    28    29   ar
    15    29    30    1
    16    29    31   ar
    17    31    32   ar
    18     8     9   ar
    19     9    10   ar
    20    10    11    1
    21    11    12    1
    22    12    13    1
    23    13    14    1
    24    14    15    1
    25    14    16    2
    26    11    17    1
    27    17    18    1
    28    18    19    1
    29    17     2    1
    30    10     5   ar
    31    16    11    1
    32    19    17    1
    33    32    26   ar
    34    22    25    1
    35    15    20    1
    36    15    21    1
@<TRIPOS>MOLECULE
*****
 32 36 0 0 0
SMALL
GASTEIGER

@<TRIPOS>ATOM
      1 C         142.9193  139.9983  166.5238 C.3     1  UNL1        0.0437
      2 C         142.4957  141.2675  165.8458 C.3     1  UNL1        0.1352
      3 C         142.1328  141.5960  167.2637 C.3     1  UNL1        0.0437
      4 O         141.9460  142.6507  165.6603 O.3     1  UNL1       -0.4828
      5 C         141.9064  143.2648  164.2922 C.ar    1  UNL1        0.1361
      6 C         141.3567  144.6480  164.1067 C.ar    1  UNL1        0.0379
      7 C         141.3171  145.2621  162.7387 C.ar    1  UNL1        0.0178
      8 C         141.8271  144.4928  161.5562 C.ar    1  UNL1        0.0505
      9 C         142.3768  143.1095  161.7419 C.ar    1  UNL1        0.0153
     10 C         142.4164  142.4955  163.1098 C.ar    1  UNL1        0.0367
     11 C         142.9661  141.1122  163.2954 C.3     1  UNL1        0.1535
     12 C         142.9906  141.5930  161.8747 C.3     1  UNL1        0.2349
     13 O         143.5808  140.5051  161.0274 O.2     1  UNL1       -0.4478
     14 C         143.9211  139.3519  161.9244 C.2     1  UNL1        0.2770
     15 N         144.5337  138.0518  161.4949 N.pl3   1  UNL1       -0.3133
     16 N         143.5411  139.7272  163.3260 N.2     1  UNL1       -0.2204
     17 C         143.0057  140.4982  164.6634 C.3     1  UNL1        0.0597
     18 C         143.6175  139.2555  164.0879 C.3     1  UNL1        0.0058
     19 C         143.3460  139.3451  165.5604 C.3     1  UNL1        0.0058
     20 H         144.7486  137.8985  160.5465 H       1  UNL1        0.1466
     21 H         144.7208  137.3519  162.1615 H       1  UNL1        0.1466
     22 N         141.7875  145.1068  160.1883 N.am    1  UNL1       -0.2791
     23 C         140.5898  144.9021  159.3087 C.2     1  UNL1        0.2672
     24 O         139.4318  144.0833  159.7970 O.2     1  UNL1       -0.2682
     25 H         142.5475  145.6442  159.8677 H       1  UNL1        0.1552
     26 C         140.5502  145.5160  157.9407 C.ar    1  UNL1        0.1349
     27 C         141.5113  145.0571  156.8845 C.ar    1  UNL1        0.0261
     28 C         141.4717  145.6712  155.5164 C.ar    1  UNL1        0.0329
     29 C         140.4709  146.7441  155.2047 C.ar    1  UNL1        0.1592
     30 F         140.4313  147.3581  153.8367 F       1  UNL1       -0.2025
     31 C         139.5098  147.2030  156.2609 C.ar    1  UNL1        0.1285
     32 N         139.5494  146.5890  157.6289 N.ar    1  UNL1       -0.2369
@<TRIPOS>BOND
     1     1     2    1
     2     2     3    1
     3     2     4    1
     4     4     5    1
     5     5     6   ar
     6     6     7   ar
     7     7     8   ar
     8     8    22    1
     9    22    23   am
    10    23    24    2
    11    23    26    1
    12    26    27   ar
    13    27    28   ar
    14    28    29   ar
    15    29    30    1
    16    29    31   ar
    17    31    32   ar
    18     8     9   ar
    19     9    10   ar
    20    10    11    1
    21    11    12    1
    22    12    13    1
    23    13    14    1
    24    14    15    1
    25    14    16    2
    26    11    17    1
    27    17    18    1
    28    18    19    1
    29    17     2    1
    30    10     5   ar
    31    16    11    1
    32    19    17    1
    33    32    26   ar
    34    22    25    1
    35    15    20    1
    36    15    21    1
@<TRIPOS>MOLECULE
*****
 32 36 0 0 0
SMALL
GASTEIGER

@<TRIPOS>ATOM
      1 C         143.7957  143.9769  164.8046 C.3     1  UNL1        0.0437
      2 C         143.7909  143.6854  163.3332 C.3     1  UNL1        0.1352
      3 C         143.7485  145.1845  163.3019 C.3     1  UNL1        0.0437
      4 O         143.7714  143.9145  161.8510 O.3     1  UNL1       -0.4828
      5 C         143.7960  142.7458  160.9110 C.ar    1  UNL1        0.1361
      6 C         143.7764  142.9750  159.4288 C.ar    1  UNL1        0.0379
      7 C         143.8010  141.8062  158.4887 C.ar    1  UNL1        0.0178
      8 C         143.8451  140.4084  159.0310 C.ar    1  UNL1        0.0505
      9 C         143.8647  140.1793  160.5134 C.ar    1  UNL1        0.0153
     10 C         143.8401  141.3480  161.4533 C.ar    1  UNL1        0.0367
     11 C         143.8596  141.1189  162.9356 C.3     1  UNL1        0.1535
     12 C         143.8879  139.8583  162.1229 C.3     1  UNL1        0.2349
     13 O         143.9290  138.6966  163.0709 O.2     1  UNL1       -0.4478
     14 C         143.9261  139.2391  164.4694 C.2     1  UNL1        0.2770
     15 N         143.9601  138.4270  165.7300 N.pl3   1  UNL1       -0.3133
     16 N         143.8832  140.7361  164.3857 N.2     1  UNL1       -0.2204
     17 C         143.8351  142.2876  163.8755 C.3     1  UNL1        0.0597
     18 C         143.8718  141.3483  165.0444 C.3     1  UNL1        0.0058
     19 C         143.8321  142.8300  165.2740 C.3     1  UNL1        0.0058
     20 H         143.9873  137.4440  165.6818 H       1  UNL1        0.1466
     21 H         143.9551  138.8769  166.6057 H       1  UNL1        0.1466
     22 N         143.8697  139.2397  158.0911 N.am    1  UNL1       -0.2791
     23 C         142.5960  138.5248  157.7498 C.2     1  UNL1        0.2672
     24 O         141.2977  138.9785  158.3485 O.2     1  UNL1       -0.2682
     25 H         144.7219  138.9419  157.6982 H       1  UNL1        0.1552
     26 C         142.6206  137.3561  156.8099 C.ar    1  UNL1        0.1349
     27 C         141.3388  136.6850  156.4139 C.ar    1  UNL1        0.0261
     28 C         141.3635  135.5163  155.4739 C.ar    1  UNL1        0.0329
     29 C         142.6698  135.0186  154.9300 C.ar    1  UNL1        0.1592
     30 F         142.6944  133.8500  153.9901 F       1  UNL1       -0.2025
     31 C         143.9515  135.6897  155.3260 C.ar    1  UNL1        0.1285
     32 N         143.9269  136.8584  156.2660 N.ar    1  UNL1       -0.2369
@<TRIPOS>BOND
     1     1     2    1
     2     2     3    1
     3     2     4    1
     4     4     5    1
     5     5     6   ar
     6     6     7   ar
     7     7     8   ar
     8     8    22    1
     9    22    23   am
    10    23    24    2
    11    23    26    1
    12    26    27   ar
    13    27    28   ar
    14    28    29   ar
    15    29    30    1
    16    29    31   ar
    17    31    32   ar
    18     8     9   ar
    19     9    10   ar
    20    10    11    1
    21    11    12    1
    22    12    13    1
    23    13    14    1
    24    14    15    1
    25    14    16    2
    26    11    17    1
    27    17    18    1
    28    18    19    1
    29    17     2    1
    30    10     5   ar
    31    16    11    1
    32    19    17    1
    33    32    26   ar
    34    22    25    1
    35    15    20    1
    36    15    21    1
@<TRIPOS>MOLECULE
*****
 32 36 0 0 0
SMALL
GASTEIGER

@<TRIPOS>ATOM
      1 C         141.2254  140.7725  170.4365 C.3     1  UNL1        0.0437
      2 C         140.8087  141.6159  169.2682 C.3     1  UNL1        0.1352
      3 C         140.0777  142.3209  170.3721 C.3     1  UNL1        0.0437
      4 O         140.1382  142.7041  168.4832 O.3     1  UNL1       -0.4828
      5 C         140.3433  142.7945  167.0000 C.ar    1  UNL1        0.1361
      6 C         139.6728  143.8827  166.2151 C.ar    1  UNL1        0.0379
      7 C         139.8779  143.9731  164.7319 C.ar    1  UNL1        0.0178
      8 C         140.7536  142.9752  164.0337 C.ar    1  UNL1        0.0505
      9 C         141.4241  141.8870  164.8187 C.ar    1  UNL1        0.0153
     10 C         141.2190  141.7966  166.3018 C.ar    1  UNL1        0.0367
     11 C         141.8895  140.7084  167.0868 C.3     1  UNL1        0.1535
     12 C         142.1868  140.6724  165.6170 C.3     1  UNL1        0.2349
     13 O         143.1026  139.5131  165.3577 O.2     1  UNL1       -0.4478
     14 C         143.3713  138.8326  166.6672 C.2     1  UNL1        0.2770
     15 N         144.2377  137.6254  166.8719 N.pl3   1  UNL1       -0.3133
     16 N         142.6216  139.5713  167.7358 N.2     1  UNL1       -0.2204
     17 C         141.6844  140.6180  168.5699 C.3     1  UNL1        0.0597
     18 C         142.5770  139.4136  168.6200 C.3     1  UNL1        0.0058
     19 C         141.9531  139.9375  169.8794 C.3     1  UNL1        0.0058
     20 H         144.6910  137.2088  166.1036 H       1  UNL1        0.1466
     21 H         144.3531  137.2496  167.7745 H       1  UNL1        0.1466
     22 N         140.9587  143.0656  162.5506 N.am    1  UNL1       -0.2791
     23 C         142.0419  143.9421  161.9953 C.2     1  UNL1        0.2672
     24 O         142.9200  144.7283  162.9231 O.2     1  UNL1       -0.2682
     25 H         140.3824  142.5496  161.9416 H       1  UNL1        0.1552
     26 C         142.2471  144.0325  160.5121 C.ar    1  UNL1        0.1349
     27 C         143.1578  143.0618  159.8204 C.ar    1  UNL1        0.0261
     28 C         143.3629  143.1522  158.3372 C.ar    1  UNL1        0.0329
     29 C         142.6573  144.2132  157.5458 C.ar    1  UNL1        0.1592
     30 F         142.8625  144.3036  156.0627 F       1  UNL1       -0.2025
     31 C         141.7466  145.1838  158.2375 C.ar    1  UNL1        0.1285
     32 N         141.5414  145.0935  159.7206 N.ar    1  UNL1       -0.2369
@<TRIPOS>BOND
     1     1     2    1
     2     2     3    1
     3     2     4    1
     4     4     5    1
     5     5     6   ar
     6     6     7   ar
     7     7     8   ar
     8     8    22    1
     9    22    23   am
    10    23    24    2
    11    23    26    1
    12    26    27   ar
    13    27    28   ar
    14    28    29   ar
    15    29    30    1
    16    29    31   ar
    17    31    32   ar
    18     8     9   ar
    19     9    10   ar
    20    10    11    1
    21    11    12    1
    22    12    13    1
    23    13    14    1
    24    14    15    1
    25    14    16    2
    26    11    17    1
    27    17    18    1
    28    18    19    1
    29    17     2    1
    30    10     5   ar
    31    16    11    1
    32    19    17    1
    33    32    26   ar
    34    22    25    1
    35    15    20    1
    36    15    21    1
@<TRIPOS>MOLECULE
*****
 32 36 0 0 0
SMALL
GASTEIGER

@<TRIPOS>ATOM
      1 C         139.6603  143.6609  165.9843 C.3     1  UNL1        0.0437
      2 C         140.9052  143.1106  165.3538 C.3     1  UNL1        0.1352
      3 C         140.9347  142.3841  166.6659 C.3     1  UNL1        0.0437
      4 O         142.1603  142.3081  165.1790 O.3     1  UNL1       -0.4828
      5 C         142.9536  142.4231  163.9111 C.ar    1  UNL1        0.1361
      6 C         144.2087  141.6206  163.7363 C.ar    1  UNL1        0.0379
      7 C         145.0020  141.7356  162.4684 C.ar    1  UNL1        0.0178
      8 C         144.5401  142.6532  161.3754 C.ar    1  UNL1        0.0505
      9 C         143.2849  143.4558  161.5502 C.ar    1  UNL1        0.0153
     10 C         142.4917  143.3407  162.8181 C.ar    1  UNL1        0.0367
     11 C         141.2365  144.1433  162.9930 C.3     1  UNL1        0.1535
     12 C         141.9219  144.3615  161.6766 C.3     1  UNL1        0.2349
     13 O         141.1171  145.3568  160.8945 O.2     1  UNL1       -0.4478
     14 C         139.9345  145.7537  161.7275 C.2     1  UNL1        0.2770
     15 N         138.8657  146.7294  161.3327 N.pl3   1  UNL1       -0.3133
     16 N         140.0083  145.0037  163.0243 N.2     1  UNL1       -0.2204
     17 C         140.4433  144.0282  164.2608 C.3     1  UNL1        0.0597
     18 C         139.4520  145.0213  163.7307 C.3     1  UNL1        0.0058
     19 C         139.2606  144.4251  165.0938 C.3     1  UNL1        0.0058
     20 H         138.9045  147.1735  160.4550 H       1  UNL1        0.1466
     21 H         138.1254  146.9255  161.9514 H       1  UNL1        0.1466
     22 N         145.3333  142.7683  160.1075 N.am    1  UNL1       -0.2791
     23 C         144.7663  142.2517  158.8185 C.2     1  UNL1        0.2672
     24 O         143.4059  141.6201  158.7973 O.2     1  UNL1       -0.2682
     25 H         146.2262  143.1829  160.1214 H       1  UNL1        0.1552
     26 C         145.5595  142.3668  157.5506 C.ar    1  UNL1        0.1349
     27 C         147.0085  142.7506  157.6047 C.ar    1  UNL1        0.0261
     28 C         147.8018  142.8657  156.3368 C.ar    1  UNL1        0.0329
     29 C         147.1460  142.5969  155.0148 C.ar    1  UNL1        0.1592
     30 F         147.9392  142.7120  153.7470 F       1  UNL1       -0.2025
     31 C         145.6969  142.2131  154.9607 C.ar    1  UNL1        0.1285
     32 N         144.9037  142.0980  156.2286 N.ar    1  UNL1       -0.2369
@<TRIPOS>BOND
     1     1     2    1
     2     2     3    1
     3     2     4    1
     4     4     5    1
     5     5     6   ar
     6     6     7   ar
     7     7     8   ar
     8     8    22    1
     9    22    23   am
    10    23    24    2
    11    23    26    1
    12    26    27   ar
    13    27    28   ar
    14    28    29   ar
    15    29    30    1
    16    29    31   ar
    17    31    32   ar
    18     8     9   ar
    19     9    10   ar
    20    10    11    1
    21    11    12    1
    22    12    13    1
    23    13    14    1
    24    14    15    1
    25    14    16    2
    26    11    17    1
    27    17    18    1
    28    18    19    1
    29    17     2    1
    30    10     5   ar
    31    16    11    1
    32    19    17    1
    33    32    26   ar
    34    22    25    1
    35    15    20    1
    36    15    21    1
