@<TRIPOS>MOLECULE
*****
 34 36 0 0 0
SMALL
GASTEIGER

@<TRIPOS>ATOM
      1 C         139.1499  139.1190  165.6781 C.ar    1  UNL1        0.0206
      2 C         139.1209  137.6831  165.2452 C.ar    1  UNL1        0.0025
      3 C         138.8804  137.3386  163.8053 C.ar    1  UNL1        0.0128
      4 C         138.6689  138.4300  162.7982 C.ar    1  UNL1        0.0765
      5 CL        138.4284  138.0855  161.3582 Cl      1  UNL1       -0.0808
      6 C         138.6979  139.8659  163.2311 C.ar    1  UNL1        0.1357
      7 C         138.9384  140.2103  164.6711 C.ar    1  UNL1        0.0226
      8 C         140.9904  140.2578  169.0046 C.ar    1  UNL1        0.1654
      9 N         140.7499  139.9133  167.5647 N.ar    1  UNL1       -0.2364
     10 C         139.3904  139.4635  167.1181 C.ar    1  UNL1        0.1007
     11 C         138.2715  139.3581  168.1115 C.ar    1  UNL1        0.1194
     12 N         138.5120  139.7026  169.5514 N.ar    1  UNL1       -0.2263
     13 C         139.8715  140.1524  169.9980 C.ar    1  UNL1        0.1477
     14 N         140.1120  140.4969  171.4380 N.pl3   1  UNL1       -0.3413
     15 H         139.3776  140.4278  172.0900 H       1  UNL1        0.1438
     16 H         141.0043  140.7922  171.7311 H       1  UNL1        0.1438
     17 C         144.1641  142.5597  169.6203 C.3     1  UNL1        0.1110
     18 N         142.8046  142.1098  169.1737 N.am    1  UNL1       -0.2978
     19 C         142.3499  140.7076  169.4512 C.2     1  UNL1        0.2664
     20 O         143.2548  139.7552  170.1752 O.2     1  UNL1       -0.2684
     21 H         142.2108  142.7349  168.6985 H       1  UNL1        0.1498
     22 S         138.4864  140.9572  162.2240 S.O2    1  UNL1        0.0745
     23 O         137.0345  141.0187  162.5956 O.2     1  UNL1       -0.1499
     24 O         139.9384  140.8957  161.8525 O.2     1  UNL1       -0.1499
     25 N         138.2750  142.0486  161.2170 N.pl3   1  UNL1       -0.2127
     26 H         137.7136  141.8854  160.4249 H       1  UNL1        0.1738
     27 C         138.9188  143.3886  161.4169 C.ar    1  UNL1        0.0944
     28 C         138.6449  144.1735  162.6655 C.ar    1  UNL1        0.0183
     29 C         139.2887  145.5134  162.8654 C.ar    1  UNL1        0.0038
     30 C         140.2063  146.0686  161.8168 C.ar    1  UNL1        0.0321
     31 C         140.4801  145.2837  160.5681 C.ar    1  UNL1        0.1687
     32 F         141.3978  145.8389  159.5194 F       1  UNL1       -0.2018
     33 C         139.8364  143.9438  160.3682 C.ar    1  UNL1        0.1818
     34 F         140.1102  143.1589  159.1196 F       1  UNL1       -0.2004
@<TRIPOS>BOND
     1    17    18    1
     2    18    19   am
     3    19    20    2
     4    19     8    1
     5     8     9   ar
     6     9    10   ar
     7    10     1    1
     8     1     2   ar
     9     2     3   ar
    10     3     4   ar
    11     4     5    1
    12     4     6   ar
    13     6    22    1
    14    22    23    2
    15    22    24    2
    16    22    25    1
    17    25    27    1
    18    27    28   ar
    19    28    29   ar
    20    29    30   ar
    21    30    31   ar
    22    31    32    1
    23    31    33   ar
    24    33    34    1
    25     6     7   ar
    26    10    11   ar
    27    11    12   ar
    28    12    13   ar
    29    13    14    1
    30    13     8   ar
    31     7     1   ar
    32    33    27   ar
    33    18    21    1
    34    25    26    1
    35    14    15    1
    36    14    16    1
@<TRIPOS>MOLECULE
*****
 34 36 0 0 0
SMALL
GASTEIGER

@<TRIPOS>ATOM
      1 C         140.1646  139.0483  165.3532 C.ar    1  UNL1        0.0206
      2 C         139.7357  137.6359  165.0866 C.ar    1  UNL1        0.0025
      3 C         138.9427  137.3127  163.8551 C.ar    1  UNL1        0.0128
      4 C         138.5786  138.4020  162.8902 C.ar    1  UNL1        0.0765
      5 CL        137.7855  138.0788  161.6587 Cl      1  UNL1       -0.0808
      6 C         139.0075  139.8144  163.1568 C.ar    1  UNL1        0.1357
      7 C         139.8006  140.1376  164.3884 C.ar    1  UNL1        0.0226
      8 C         141.1036  140.4269  168.9543 C.ar    1  UNL1        0.1654
      9 N         140.3106  140.1038  167.7228 N.ar    1  UNL1       -0.2364
     10 C         140.9577  139.3715  166.5848 C.ar    1  UNL1        0.1007
     11 C         142.3978  138.9624  166.6783 C.ar    1  UNL1        0.1194
     12 N         143.1908  139.2856  167.9098 N.ar    1  UNL1       -0.2263
     13 C         142.5437  140.0179  169.0478 C.ar    1  UNL1        0.1477
     14 N         143.3367  140.3410  170.2794 N.pl3   1  UNL1       -0.3413
     15 H         144.2819  140.0725  170.3408 H       1  UNL1        0.1438
     16 H         142.9121  140.8216  171.0263 H       1  UNL1        0.1438
     17 C         139.3481  143.3068  171.0459 C.3     1  UNL1        0.1110
     18 N         139.9952  142.5745  169.9079 N.am    1  UNL1       -0.2978
     19 C         140.4565  141.1592  170.0923 C.2     1  UNL1        0.2664
     20 O         140.2708  140.4762  171.4148 O.2     1  UNL1       -0.2684
     21 H         140.1171  143.0228  169.0399 H       1  UNL1        0.1498
     22 S         138.6434  140.9036  162.1919 S.O2    1  UNL1        0.0745
     23 O         139.9617  140.7295  161.4979 O.2     1  UNL1       -0.1499
     24 O         137.3251  141.0777  162.8859 O.2     1  UNL1       -0.1499
     25 N         138.2793  141.9928  161.2271 N.pl3   1  UNL1       -0.2127
     26 H         137.6324  141.8160  160.5064 H       1  UNL1        0.1738
     27 C         138.9010  143.3515  161.3603 C.ar    1  UNL1        0.0944
     28 C         138.6529  144.1724  162.5909 C.ar    1  UNL1        0.0183
     29 C         139.2745  145.5310  162.7242 C.ar    1  UNL1        0.0038
     30 C         140.1442  146.0687  161.6267 C.ar    1  UNL1        0.0321
     31 C         140.3923  145.2478  160.3961 C.ar    1  UNL1        0.1687
     32 F         141.2621  145.7855  159.2986 F       1  UNL1       -0.2018
     33 C         139.7707  143.8892  160.2628 C.ar    1  UNL1        0.1818
     34 F         140.0188  143.0683  159.0321 F       1  UNL1       -0.2004
@<TRIPOS>BOND
     1    17    18    1
     2    18    19   am
     3    19    20    2
     4    19     8    1
     5     8     9   ar
     6     9    10   ar
     7    10     1    1
     8     1     2   ar
     9     2     3   ar
    10     3     4   ar
    11     4     5    1
    12     4     6   ar
    13     6    22    1
    14    22    23    2
    15    22    24    2
    16    22    25    1
    17    25    27    1
    18    27    28   ar
    19    28    29   ar
    20    29    30   ar
    21    30    31   ar
    22    31    32    1
    23    31    33   ar
    24    33    34    1
    25     6     7   ar
    26    10    11   ar
    27    11    12   ar
    28    12    13   ar
    29    13    14    1
    30    13     8   ar
    31     7     1   ar
    32    33    27   ar
    33    18    21    1
    34    25    26    1
    35    14    15    1
    36    14    16    1
@<TRIPOS>MOLECULE
*****
 34 36 0 0 0
SMALL
GASTEIGER

@<TRIPOS>ATOM
      1 C         140.2062  144.4008  159.0753 C.ar    1  UNL1        0.0206
      2 C         141.1440  145.0948  160.0180 C.ar    1  UNL1        0.0025
      3 C         141.1928  144.6893  161.4613 C.ar    1  UNL1        0.0128
      4 C         140.3038  143.5897  161.9619 C.ar    1  UNL1        0.0765
      5 CL        140.3526  143.1842  163.4052 Cl      1  UNL1       -0.0808
      6 C         139.3660  142.8956  161.0191 C.ar    1  UNL1        0.1357
      7 C         139.3172  143.3012  159.5758 C.ar    1  UNL1        0.0226
      8 C         139.8233  146.6375  155.8194 C.ar    1  UNL1        0.1654
      9 N         139.8721  146.2319  157.2627 N.ar    1  UNL1       -0.2364
     10 C         140.1575  144.8063  157.6319 C.ar    1  UNL1        0.1007
     11 C         140.3941  143.7864  156.5579 C.ar    1  UNL1        0.1194
     12 N         140.3453  144.1920  155.1146 N.ar    1  UNL1       -0.2263
     13 C         140.0599  145.6175  154.7454 C.ar    1  UNL1        0.1477
     14 N         140.0112  146.0231  153.3020 N.pl3   1  UNL1       -0.3413
     15 H         140.1664  145.3536  152.5971 H       1  UNL1        0.1438
     16 H         139.8239  146.9587  153.0597 H       1  UNL1        0.1438
     17 C         138.3344  150.3145  155.9323 C.3     1  UNL1        0.1110
     18 N         138.6197  148.8889  156.3015 N.am    1  UNL1       -0.2978
     19 C         139.5380  148.0631  155.4502 C.2     1  UNL1        0.2664
     20 O         140.1708  148.6628  154.2297 O.2     1  UNL1       -0.2684
     21 H         138.2044  148.4953  157.1026 H       1  UNL1        0.1498
     22 S         138.4770  141.7960  161.5197 S.O2    1  UNL1        0.0745
     23 O         139.4855  140.7785  161.0753 O.2     1  UNL1       -0.1499
     24 O         137.4686  142.8136  161.9640 O.2     1  UNL1       -0.1499
     25 N         137.5880  140.6965  162.0202 N.pl3   1  UNL1       -0.2127
     26 H         136.6859  140.5826  161.6428 H       1  UNL1        0.1738
     27 C         138.0735  139.7704  163.0957 C.ar    1  UNL1        0.0944
     28 C         138.4575  138.3610  162.7548 C.ar    1  UNL1        0.0183
     29 C         138.9430  137.4349  163.8303 C.ar    1  UNL1        0.0038
     30 C         139.0445  137.9182  165.2466 C.ar    1  UNL1        0.0321
     31 C         138.6605  139.3276  165.5875 C.ar    1  UNL1        0.1687
     32 F         138.7620  139.8108  167.0039 F       1  UNL1       -0.2018
     33 C         138.1750  140.2537  164.5121 C.ar    1  UNL1        0.1818
     34 F         137.7910  141.6630  164.8530 F       1  UNL1       -0.2004
@<TRIPOS>BOND
     1    17    18    1
     2    18    19   am
     3    19    20    2
     4    19     8    1
     5     8     9   ar
     6     9    10   ar
     7    10     1    1
     8     1     2   ar
     9     2     3   ar
    10     3     4   ar
    11     4     5    1
    12     4     6   ar
    13     6    22    1
    14    22    23    2
    15    22    24    2
    16    22    25    1
    17    25    27    1
    18    27    28   ar
    19    28    29   ar
    20    29    30   ar
    21    30    31   ar
    22    31    32    1
    23    31    33   ar
    24    33    34    1
    25     6     7   ar
    26    10    11   ar
    27    11    12   ar
    28    12    13   ar
    29    13    14    1
    30    13     8   ar
    31     7     1   ar
    32    33    27   ar
    33    18    21    1
    34    25    26    1
    35    14    15    1
    36    14    16    1
@<TRIPOS>MOLECULE
*****
 34 36 0 0 0
SMALL
GASTEIGER

@<TRIPOS>ATOM
      1 C         143.4160  143.1393  162.2151 C.ar    1  UNL1        0.0206
      2 C         144.1804  144.1664  162.9966 C.ar    1  UNL1        0.0025
      3 C         144.2606  144.0651  164.4910 C.ar    1  UNL1        0.0128
      4 C         143.5762  142.9366  165.2040 C.ar    1  UNL1        0.0765
      5 CL        143.6564  142.8352  166.6984 Cl      1  UNL1       -0.0808
      6 C         142.8118  141.9095  164.4225 C.ar    1  UNL1        0.1357
      7 C         142.7317  142.0109  162.9280 C.ar    1  UNL1        0.0226
      8 C         144.3135  142.7061  158.3736 C.ar    1  UNL1        0.1654
      9 N         144.3935  142.6047  159.8680 N.ar    1  UNL1       -0.2364
     10 C         143.3359  143.2407  160.7206 C.ar    1  UNL1        0.1007
     11 C         142.1983  143.9781  160.0788 C.ar    1  UNL1        0.1194
     12 N         142.1182  144.0795  158.5844 N.ar    1  UNL1       -0.2263
     13 C         143.1758  143.4435  157.7318 C.ar    1  UNL1        0.1477
     14 N         143.0957  143.5449  156.2374 N.pl3   1  UNL1       -0.3413
     15 H         142.3490  144.0289  155.8161 H       1  UNL1        0.1438
     16 H         143.7898  143.1274  155.6777 H       1  UNL1        0.1438
     17 C         147.5901  142.2489  156.1817 C.3     1  UNL1        0.1110
     18 N         146.5325  142.8850  157.0343 N.am    1  UNL1       -0.2978
     19 C         145.3711  142.0700  157.5210 C.2     1  UNL1        0.2664
     20 O         145.2672  140.6191  157.1551 O.2     1  UNL1       -0.2684
     21 H         146.6006  143.8373  157.2744 H       1  UNL1        0.1498
     22 S         142.1275  140.7811  165.1354 S.O2    1  UNL1        0.0745
     23 O         140.8856  141.6130  165.2602 O.2     1  UNL1       -0.1499
     24 O         143.3693  139.9491  165.0106 O.2     1  UNL1       -0.1499
     25 N         141.4432  139.6526  165.8483 N.pl3   1  UNL1       -0.2127
     26 H         141.1328  138.8670  165.3426 H       1  UNL1        0.1738
     27 C         141.2318  139.7211  167.3318 C.ar    1  UNL1        0.0944
     28 C         142.3961  139.5594  168.2635 C.ar    1  UNL1        0.0183
     29 C         142.1848  139.6279  169.7470 C.ar    1  UNL1        0.0038
     30 C         140.8091  139.8579  170.2986 C.ar    1  UNL1        0.0321
     31 C         139.6447  140.0196  169.3669 C.ar    1  UNL1        0.1687
     32 F         138.2689  140.2497  169.9187 F       1  UNL1       -0.2018
     33 C         139.8560  139.9511  167.8835 C.ar    1  UNL1        0.1818
     34 F         138.6917  140.1128  166.9518 F       1  UNL1       -0.2004
@<TRIPOS>BOND
     1    17    18    1
     2    18    19   am
     3    19    20    2
     4    19     8    1
     5     8     9   ar
     6     9    10   ar
     7    10     1    1
     8     1     2   ar
     9     2     3   ar
    10     3     4   ar
    11     4     5    1
    12     4     6   ar
    13     6    22    1
    14    22    23    2
    15    22    24    2
    16    22    25    1
    17    25    27    1
    18    27    28   ar
    19    28    29   ar
    20    29    30   ar
    21    30    31   ar
    22    31    32    1
    23    31    33   ar
    24    33    34    1
    25     6     7   ar
    26    10    11   ar
    27    11    12   ar
    28    12    13   ar
    29    13    14    1
    30    13     8   ar
    31     7     1   ar
    32    33    27   ar
    33    18    21    1
    34    25    26    1
    35    14    15    1
    36    14    16    1
@<TRIPOS>MOLECULE
*****
 34 36 0 0 0
SMALL
GASTEIGER

@<TRIPOS>ATOM
      1 C         139.2700  139.8842  165.8356 C.ar    1  UNL1        0.0206
      2 C         139.1065  138.5456  165.1788 C.ar    1  UNL1        0.0025
      3 C         138.8161  138.4616  163.7096 C.ar    1  UNL1        0.0128
      4 C         138.6891  139.7162  162.8972 C.ar    1  UNL1        0.0765
      5 CL        138.3987  139.6322  161.4280 Cl      1  UNL1       -0.0808
      6 C         138.8526  141.0548  163.5540 C.ar    1  UNL1        0.1357
      7 C         139.1430  141.1388  165.0233 C.ar    1  UNL1        0.0226
      8 C         141.2118  140.4698  169.2469 C.ar    1  UNL1        0.1654
      9 N         140.9213  140.3858  167.7777 N.ar    1  UNL1       -0.2364
     10 C         139.5604  139.9682  167.3049 C.ar    1  UNL1        0.1007
     11 C         138.4900  139.6346  168.3013 C.ar    1  UNL1        0.1194
     12 N         138.7804  139.7186  169.7705 N.ar    1  UNL1       -0.2263
     13 C         140.1413  140.1362  170.2433 C.ar    1  UNL1        0.1477
     14 N         140.4318  140.2202  171.7125 N.pl3   1  UNL1       -0.3413
     15 H         139.7292  140.0012  172.3665 H       1  UNL1        0.1438
     16 H         141.3250  140.4943  172.0229 H       1  UNL1        0.1438
     17 C         144.4390  142.6861  169.8973 C.3     1  UNL1        0.1110
     18 N         143.0781  142.2685  169.4245 N.am    1  UNL1       -0.2978
     19 C         142.5727  140.8874  169.7197 C.2     1  UNL1        0.2664
     20 O         143.4282  139.9240  170.4876 O.2     1  UNL1       -0.2684
     21 H         142.5166  142.9009  168.9205 H       1  UNL1        0.1498
     22 S         138.7256  142.3094  162.7417 S.O2    1  UNL1        0.0745
     23 O         140.2194  142.4424  162.7137 O.2     1  UNL1       -0.1499
     24 O         137.2318  142.1763  162.7697 O.2     1  UNL1       -0.1499
     25 N         138.5987  143.5639  161.9294 N.pl3   1  UNL1       -0.2127
     26 H         138.1050  144.3357  162.2896 H       1  UNL1        0.1738
     27 C         139.2240  143.6425  160.5681 C.ar    1  UNL1        0.0944
     28 C         138.8979  142.6079  159.5322 C.ar    1  UNL1        0.0183
     29 C         139.5232  142.6865  158.1710 C.ar    1  UNL1        0.0038
     30 C         140.4744  143.7997  157.8458 C.ar    1  UNL1        0.0321
     31 C         140.8005  144.8343  158.8818 C.ar    1  UNL1        0.1687
     32 F         141.7518  145.9475  158.5565 F       1  UNL1       -0.2018
     33 C         140.1753  144.7557  160.2429 C.ar    1  UNL1        0.1818
     34 F         140.5013  145.7904  161.2789 F       1  UNL1       -0.2004
@<TRIPOS>BOND
     1    17    18    1
     2    18    19   am
     3    19    20    2
     4    19     8    1
     5     8     9   ar
     6     9    10   ar
     7    10     1    1
     8     1     2   ar
     9     2     3   ar
    10     3     4   ar
    11     4     5    1
    12     4     6   ar
    13     6    22    1
    14    22    23    2
    15    22    24    2
    16    22    25    1
    17    25    27    1
    18    27    28   ar
    19    28    29   ar
    20    29    30   ar
    21    30    31   ar
    22    31    32    1
    23    31    33   ar
    24    33    34    1
    25     6     7   ar
    26    10    11   ar
    27    11    12   ar
    28    12    13   ar
    29    13    14    1
    30    13     8   ar
    31     7     1   ar
    32    33    27   ar
    33    18    21    1
    34    25    26    1
    35    14    15    1
    36    14    16    1
@<TRIPOS>MOLECULE
*****
 34 36 0 0 0
SMALL
GASTEIGER

@<TRIPOS>ATOM
      1 C         138.7225  142.3070  162.0236 C.ar    1  UNL1        0.0206
      2 C         137.8498  143.3099  162.7183 C.ar    1  UNL1        0.0025
      3 C         138.1924  143.7698  164.1043 C.ar    1  UNL1        0.0128
      4 C         139.4078  143.2268  164.7957 C.ar    1  UNL1        0.0765
      5 CL        139.7504  143.6867  166.1817 Cl      1  UNL1       -0.0808
      6 C         140.2805  142.2238  164.1011 C.ar    1  UNL1        0.1357
      7 C         139.9378  141.7639  162.7150 C.ar    1  UNL1        0.0226
      8 C         138.1378  142.3413  158.0985 C.ar    1  UNL1        0.1654
      9 N         138.4805  142.8011  159.4845 N.ar    1  UNL1       -0.2364
     10 C         138.3798  141.8471  160.6376 C.ar    1  UNL1        0.1007
     11 C         137.9364  140.4332  160.4046 C.ar    1  UNL1        0.1194
     12 N         137.5938  139.9733  159.0186 N.ar    1  UNL1       -0.2263
     13 C         137.6945  140.9274  157.8655 C.ar    1  UNL1        0.1477
     14 N         137.3518  140.4675  156.4795 N.pl3   1  UNL1       -0.3413
     15 H         137.0608  139.5395  156.3266 H       1  UNL1        0.1438
     16 H         137.4179  141.0937  155.7226 H       1  UNL1        0.1438
     17 C         139.5910  145.0504  155.5887 C.3     1  UNL1        0.1110
     18 N         139.4903  144.0963  156.7417 N.am    1  UNL1       -0.2978
     19 C         138.2385  143.2954  156.9454 C.2     1  UNL1        0.2664
     20 O         137.0874  143.4485  155.9959 O.2     1  UNL1       -0.2684
     21 H         140.2458  143.9959  157.3649 H       1  UNL1        0.1498
     22 S         141.4959  141.6808  164.7924 S.O2    1  UNL1        0.0745
     23 O         140.6966  140.5070  165.2754 O.2     1  UNL1       -0.1499
     24 O         142.2951  142.8546  164.3094 O.2     1  UNL1       -0.1499
     25 N         142.7112  141.1378  165.4838 N.pl3   1  UNL1       -0.2127
     26 H         143.4844  140.8352  164.9548 H       1  UNL1        0.1738
     27 C         142.7485  141.0559  166.9811 C.ar    1  UNL1        0.0944
     28 C         142.8127  142.3113  167.7996 C.ar    1  UNL1        0.0183
     29 C         142.8500  142.2294  169.2968 C.ar    1  UNL1        0.0038
     30 C         142.8231  140.8921  169.9757 C.ar    1  UNL1        0.0321
     31 C         142.7589  139.6367  169.1573 C.ar    1  UNL1        0.1687
     32 F         142.7320  138.2994  169.8362 F       1  UNL1       -0.2018
     33 C         142.7216  139.7186  167.6600 C.ar    1  UNL1        0.1818
     34 F         142.6574  138.4632  166.8416 F       1  UNL1       -0.2004
@<TRIPOS>BOND
     1    17    18    1
     2    18    19   am
     3    19    20    2
     4    19     8    1
     5     8     9   ar
     6     9    10   ar
     7    10     1    1
     8     1     2   ar
     9     2     3   ar
    10     3     4   ar
    11     4     5    1
    12     4     6   ar
    13     6    22    1
    14    22    23    2
    15    22    24    2
    16    22    25    1
    17    25    27    1
    18    27    28   ar
    19    28    29   ar
    20    29    30   ar
    21    30    31   ar
    22    31    32    1
    23    31    33   ar
    24    33    34    1
    25     6     7   ar
    26    10    11   ar
    27    11    12   ar
    28    12    13   ar
    29    13    14    1
    30    13     8   ar
    31     7     1   ar
    32    33    27   ar
    33    18    21    1
    34    25    26    1
    35    14    15    1
    36    14    16    1
@<TRIPOS>MOLECULE
*****
 34 36 0 0 0
SMALL
GASTEIGER

@<TRIPOS>ATOM
      1 C         140.9876  143.9884  161.8777 C.ar    1  UNL1        0.0206
      2 C         140.2987  145.1484  162.5333 C.ar    1  UNL1        0.0025
      3 C         139.8186  145.0327  163.9496 C.ar    1  UNL1        0.0128
      4 C         140.0275  143.7570  164.7105 C.ar    1  UNL1        0.0765
      5 CL        139.5474  143.6413  166.1269 Cl      1  UNL1       -0.0808
      6 C         140.7164  142.5970  164.0550 C.ar    1  UNL1        0.1357
      7 C         141.1965  142.7127  162.6386 C.ar    1  UNL1        0.0226
      8 C         141.0841  144.8813  158.0121 C.ar    1  UNL1        0.1654
      9 N         140.6041  144.7655  159.4284 N.ar    1  UNL1       -0.2364
     10 C         141.4677  144.1042  160.4613 C.ar    1  UNL1        0.1007
     11 C         142.8113  143.5586  160.0779 C.ar    1  UNL1        0.1194
     12 N         143.2913  143.6744  158.6615 N.ar    1  UNL1       -0.2263
     13 C         142.4277  144.3357  157.6286 C.ar    1  UNL1        0.1477
     14 N         142.9078  144.4515  156.2122 N.pl3   1  UNL1       -0.3413
     15 H         143.7897  144.0934  155.9605 H       1  UNL1        0.1438
     16 H         142.3410  144.8856  155.5342 H       1  UNL1        0.1438
     17 C         138.9476  147.6368  156.1168 C.3     1  UNL1        0.1110
     18 N         139.8111  146.9755  157.1497 N.am    1  UNL1       -0.2978
     19 C         140.2206  145.5426  156.9792 C.2     1  UNL1        0.2664
     20 O         139.7664  144.7711  155.7757 O.2     1  UNL1       -0.2684
     21 H         140.1092  147.4819  157.9396 H       1  UNL1        0.1498
     22 S         140.9253  141.3212  164.8158 S.O2    1  UNL1        0.0745
     23 O         139.6392  140.7816  164.2640 O.2     1  UNL1       -0.1499
     24 O         142.2114  141.8609  165.3676 O.2     1  UNL1       -0.1499
     25 N         141.1342  140.0455  165.5766 N.pl3   1  UNL1       -0.2127
     26 H         141.3919  139.2241  165.0990 H       1  UNL1        0.1738
     27 C         140.9503  140.0213  167.0652 C.ar    1  UNL1        0.0944
     28 C         139.6394  140.4344  167.6657 C.ar    1  UNL1        0.0183
     29 C         139.4555  140.4102  169.1542 C.ar    1  UNL1        0.0038
     30 C         140.5826  139.9728  170.0421 C.ar    1  UNL1        0.0321
     31 C         141.8935  139.5597  169.4415 C.ar    1  UNL1        0.1687
     32 F         143.0206  139.1224  170.3294 F       1  UNL1       -0.2018
     33 C         142.0774  139.5839  167.9530 C.ar    1  UNL1        0.1818
     34 F         143.3884  139.1708  167.3524 F       1  UNL1       -0.2004
@<TRIPOS>BOND
     1    17    18    1
     2    18    19   am
     3    19    20    2
     4    19     8    1
     5     8     9   ar
     6     9    10   ar
     7    10     1    1
     8     1     2   ar
     9     2     3   ar
    10     3     4   ar
    11     4     5    1
    12     4     6   ar
    13     6    22    1
    14    22    23    2
    15    22    24    2
    16    22    25    1
    17    25    27    1
    18    27    28   ar
    19    28    29   ar
    20    29    30   ar
    21    30    31   ar
    22    31    32    1
    23    31    33   ar
    24    33    34    1
    25     6     7   ar
    26    10    11   ar
    27    11    12   ar
    28    12    13   ar
    29    13    14    1
    30    13     8   ar
    31     7     1   ar
    32    33    27   ar
    33    18    21    1
    34    25    26    1
    35    14    15    1
    36    14    16    1
@<TRIPOS>MOLECULE
*****
 34 36 0 0 0
SMALL
GASTEIGER

@<TRIPOS>ATOM
      1 C         140.5159  141.2860  163.1636 C.ar    1  UNL1        0.0206
      2 C         140.2490  140.0886  162.3005 C.ar    1  UNL1        0.0025
      3 C         140.5747  138.7136  162.8039 C.ar    1  UNL1        0.0128
      4 C         141.1674  138.5361  164.1704 C.ar    1  UNL1        0.0765
      5 CL        141.4932  137.1611  164.6737 Cl      1  UNL1       -0.0808
      6 C         141.4344  139.7335  165.0334 C.ar    1  UNL1        0.1357
      7 C         141.1087  141.1085  164.5300 C.ar    1  UNL1        0.0226
      8 C         140.2195  144.4238  160.7519 C.ar    1  UNL1        0.1654
      9 N         140.5452  143.0489  161.2554 N.ar    1  UNL1       -0.2364
     10 C         140.1902  142.6610  162.6602 C.ar    1  UNL1        0.1007
     11 C         139.5094  143.6479  163.5615 C.ar    1  UNL1        0.1194
     12 N         139.1837  145.0228  163.0581 N.ar    1  UNL1       -0.2263
     13 C         139.5387  145.4108  161.6533 C.ar    1  UNL1        0.1477
     14 N         139.2129  146.7858  161.1498 N.pl3   1  UNL1       -0.3413
     15 H         138.7661  147.4335  161.7415 H       1  UNL1        0.1438
     16 H         139.4459  147.0404  160.2278 H       1  UNL1        0.1438
     17 C         142.1687  146.0018  157.6762 C.3     1  UNL1        0.1110
     18 N         141.8137  145.6139  159.0810 N.am    1  UNL1       -0.2978
     19 C         140.5745  144.8118  159.3471 C.2     1  UNL1        0.2664
     20 O         139.6902  144.3977  158.2085 O.2     1  UNL1       -0.2684
     21 H         142.3941  145.8857  159.8283 H       1  UNL1        0.1498
     22 S         142.0272  139.5560  166.3998 S.O2    1  UNL1        0.0745
     23 O         143.4050  139.6336  165.8122 O.2     1  UNL1       -0.1499
     24 O         140.6493  139.4784  166.9875 O.2     1  UNL1       -0.1499
     25 N         142.6199  139.3785  167.7663 N.pl3   1  UNL1       -0.2127
     26 H         143.3359  138.7184  167.9103 H       1  UNL1        0.1738
     27 C         142.1217  140.2069  168.9133 C.ar    1  UNL1        0.0944
     28 C         141.2415  139.5882  169.9586 C.ar    1  UNL1        0.0183
     29 C         140.7433  140.4165  171.1056 C.ar    1  UNL1        0.0038
     30 C         141.1252  141.8634  171.2074 C.ar    1  UNL1        0.0321
     31 C         142.0054  142.4821  170.1621 C.ar    1  UNL1        0.1687
     32 F         142.3873  143.9291  170.2639 F       1  UNL1       -0.2018
     33 C         142.5036  141.6538  169.0151 C.ar    1  UNL1        0.1818
     34 F         143.3838  142.2725  167.9698 F       1  UNL1       -0.2004
@<TRIPOS>BOND
     1    17    18    1
     2    18    19   am
     3    19    20    2
     4    19     8    1
     5     8     9   ar
     6     9    10   ar
     7    10     1    1
     8     1     2   ar
     9     2     3   ar
    10     3     4   ar
    11     4     5    1
    12     4     6   ar
    13     6    22    1
    14    22    23    2
    15    22    24    2
    16    22    25    1
    17    25    27    1
    18    27    28   ar
    19    28    29   ar
    20    29    30   ar
    21    30    31   ar
    22    31    32    1
    23    31    33   ar
    24    33    34    1
    25     6     7   ar
    26    10    11   ar
    27    11    12   ar
    28    12    13   ar
    29    13    14    1
    30    13     8   ar
    31     7     1   ar
    32    33    27   ar
    33    18    21    1
    34    25    26    1
    35    14    15    1
    36    14    16    1
@<TRIPOS>MOLECULE
*****
 34 36 0 0 0
SMALL
GASTEIGER

@<TRIPOS>ATOM
      1 C         142.8545  142.1582  166.2215 C.ar    1  UNL1        0.0206
      2 C         143.9883  143.1393  166.1800 C.ar    1  UNL1        0.0025
      3 C         144.5643  143.5645  164.8619 C.ar    1  UNL1        0.0128
      4 C         144.0064  143.0087  163.5852 C.ar    1  UNL1        0.0765
      5 CL        144.5823  143.4339  162.2672 Cl      1  UNL1       -0.0808
      6 C         142.8725  142.0275  163.6268 C.ar    1  UNL1        0.1357
      7 C         142.2965  141.6023  164.9449 C.ar    1  UNL1        0.0226
      8 C         140.3794  140.6028  168.9057 C.ar    1  UNL1        0.1654
      9 N         140.9553  141.0280  167.5876 N.ar    1  UNL1       -0.2364
     10 C         142.2785  141.7329  167.5397 C.ar    1  UNL1        0.1007
     11 C         143.0257  142.0126  168.8099 C.ar    1  UNL1        0.1194
     12 N         142.4498  141.5874  170.1280 N.ar    1  UNL1       -0.2263
     13 C         141.1266  140.8825  170.1759 C.ar    1  UNL1        0.1477
     14 N         140.5506  140.4572  171.4941 N.pl3   1  UNL1       -0.3413
     15 H         141.0411  140.6408  172.3277 H       1  UNL1        0.1438
     16 H         139.6822  139.9946  171.5255 H       1  UNL1        0.1438
     17 C         137.2560  138.4116  167.8133 C.3     1  UNL1        0.1110
     18 N         138.5792  139.1165  167.7654 N.am    1  UNL1       -0.2978
     19 C         139.0562  139.8979  168.9536 C.2     1  UNL1        0.2664
     20 O         138.2100  139.9744  170.1897 O.2     1  UNL1       -0.2684
     21 H         139.1346  139.0663  166.9541 H       1  UNL1        0.1498
     22 S         142.3145  141.4717  162.3502 S.O2    1  UNL1        0.0745
     23 O         141.2516  142.5300  162.3539 O.2     1  UNL1       -0.1499
     24 O         143.3774  140.4133  162.3465 O.2     1  UNL1       -0.1499
     25 N         141.7566  140.9158  161.0736 N.pl3   1  UNL1       -0.2127
     26 H         142.2942  140.9412  160.2492 H       1  UNL1        0.1738
     27 C         140.3796  140.3212  161.0531 C.ar    1  UNL1        0.0944
     28 C         139.3221  140.9088  160.1663 C.ar    1  UNL1        0.0183
     29 C         137.9451  140.3142  160.1458 C.ar    1  UNL1        0.0038
     30 C         137.6257  139.1320  161.0120 C.ar    1  UNL1        0.0321
     31 C         138.6832  138.5444  161.8987 C.ar    1  UNL1        0.1687
     32 F         138.3637  137.3621  162.7649 F       1  UNL1       -0.2018
     33 C         140.0602  139.1390  161.9193 C.ar    1  UNL1        0.1818
     34 F         141.1177  138.5513  162.8060 F       1  UNL1       -0.2004
@<TRIPOS>BOND
     1    17    18    1
     2    18    19   am
     3    19    20    2
     4    19     8    1
     5     8     9   ar
     6     9    10   ar
     7    10     1    1
     8     1     2   ar
     9     2     3   ar
    10     3     4   ar
    11     4     5    1
    12     4     6   ar
    13     6    22    1
    14    22    23    2
    15    22    24    2
    16    22    25    1
    17    25    27    1
    18    27    28   ar
    19    28    29   ar
    20    29    30   ar
    21    30    31   ar
    22    31    32    1
    23    31    33   ar
    24    33    34    1
    25     6     7   ar
    26    10    11   ar
    27    11    12   ar
    28    12    13   ar
    29    13    14    1
    30    13     8   ar
    31     7     1   ar
    32    33    27   ar
    33    18    21    1
    34    25    26    1
    35    14    15    1
    36    14    16    1
