@<TRIPOS>MOLECULE
*****
 38 42 0 0 0
SMALL
GASTEIGER

@<TRIPOS>ATOM
      1 C         143.5349  140.9892  161.5798 C.ar    1  UNL1        0.0505
      2 C         144.8517  141.3267  162.2138 C.ar    1  UNL1        0.0170
      3 C         144.9419  142.4516  163.2019 C.ar    1  UNL1        0.0306
      4 C         143.7152  143.2390  163.5559 C.ar    1  UNL1        0.1380
      5 F         143.8054  144.3640  164.5441 F       1  UNL1       -0.2044
      6 C         142.3984  142.9014  162.9219 C.ar    1  UNL1        0.0282
      7 C         142.3083  141.7765  161.9338 C.ar    1  UNL1        0.0145
      8 C         141.1717  143.6888  163.2759 C.3     1  UNL1        0.1277
      9 C         141.5670  142.6771  164.3104 C.3     1  UNL1        0.1202
     10 N         140.5794  142.7558  165.4368 N.pl3   1  UNL1       -0.2758
     11 C         139.5739  143.8161  165.0983 C.3     1  UNL1        0.0968
     12 C         139.9399  144.3928  163.7628 C.3     1  UNL1        0.0573
     13 C         139.3107  145.4679  162.9273 C.3     1  UNL1        0.0688
     14 S         139.9133  145.8390  161.6048 S.3     1  UNL1       -0.0807
     15 C         141.1452  145.1351  161.1178 C.2     1  UNL1        0.1482
     16 N         141.7478  145.5063  159.7953 N.pl3   1  UNL1       -0.3380
     17 N         141.7744  144.0600  161.9534 N.2     1  UNL1       -0.2491
     18 H         141.3348  146.2120  159.2469 H       1  UNL1        0.1442
     19 H         142.5563  145.0443  159.4757 H       1  UNL1        0.1442
     20 C         140.5948  141.9208  166.6827 C.ar    1  UNL1        0.2204
     21 N         141.5433  142.2526  167.7964 N.ar    1  UNL1       -0.2097
     22 C         141.5586  141.4176  169.0424 C.ar    1  UNL1        0.1330
     23 C         140.6255  140.2507  169.1747 C.ar    1  UNL1        0.1784
     24 F         140.6408  139.4156  170.4207 F       1  UNL1       -0.2009
     25 C         139.6770  139.9188  168.0611 C.ar    1  UNL1        0.1330
     26 N         139.6617  140.7538  166.8151 N.ar    1  UNL1       -0.2097
     27 C         143.4161  140.1583  159.1210 C.2     1  UNL1        0.2688
     28 O         143.4774  141.5772  158.6386 O.2     1  UNL1       -0.2681
     29 N         143.4448  139.8642  160.5916 N.am    1  UNL1       -0.2791
     30 H         143.4046  138.9329  160.9083 H       1  UNL1        0.1552
     31 C         143.1457  136.7834  156.1566 C.ar    1  UNL1        0.2449
     32 C         143.7879  138.0799  155.7606 C.ar    1  UNL1        0.1565
     33 N         143.8781  139.2048  156.7488 N.ar    1  UNL1       -0.2328
     34 C         143.3259  139.0333  158.1328 C.ar    1  UNL1        0.1541
     35 C         142.6837  137.7368  158.5288 C.ar    1  UNL1        0.1258
     36 N         142.5936  136.6119  157.5407 N.ar    1  UNL1       -0.2071
     37 C         142.3049  134.4086  155.5212 C.3     1  UNL1        0.2543
     38 O         143.0556  135.6586  155.1685 O.3     1  UNL1       -0.4551
@<TRIPOS>BOND
     1    37    38    1
     2    38    31    1
     3    31    32   ar
     4    32    33   ar
     5    33    34   ar
     6    34    27    1
     7    27    28    2
     8    27    29   am
     9    29     1    1
    10     1     2   ar
    11     2     3   ar
    12     3     4   ar
    13     4     5    1
    14     4     6   ar
    15     8     6    1
    16     8     9    1
    17     9    10    1
    18    10    20    1
    19    20    21   ar
    20    21    22   ar
    21    22    23   ar
    22    23    24    1
    23    23    25   ar
    24    25    26   ar
    25    10    11    1
    26    12    11    1
    27    12    13    1
    28    13    14    1
    29    14    15    1
    30    15    16    1
    31    15    17    2
    32     6     7   ar
    33    34    35   ar
    34    35    36   ar
    35    36    31   ar
    36     7     1   ar
    37    12     8    1
    38    17     8    1
    39    26    20   ar
    40    29    30    1
    41    16    18    1
    42    16    19    1
@<TRIPOS>MOLECULE
*****
 38 42 0 0 0
SMALL
GASTEIGER

@<TRIPOS>ATOM
      1 C         141.0650  139.7827  159.6651 C.ar    1  UNL1        0.0505
      2 C         140.1102  140.9148  159.4274 C.ar    1  UNL1        0.0170
      3 C         140.0436  142.0562  160.3983 C.ar    1  UNL1        0.0306
      4 C         140.9320  142.0655  161.6069 C.ar    1  UNL1        0.1380
      5 F         140.8655  143.2071  162.5778 F       1  UNL1       -0.2044
      6 C         141.8869  140.9334  161.8445 C.ar    1  UNL1        0.0282
      7 C         141.9533  139.7920  160.8736 C.ar    1  UNL1        0.0145
      8 C         142.7753  140.9427  163.0532 C.3     1  UNL1        0.1277
      9 C         141.4178  140.3534  163.2983 C.3     1  UNL1        0.1202
     10 N         141.3483  139.9315  164.7360 N.pl3   1  UNL1       -0.2758
     11 C         142.6629  140.2600  165.3795 C.3     1  UNL1        0.0968
     12 C         143.5448  140.8849  164.3394 C.3     1  UNL1        0.0573
     13 C         144.9491  141.4089  164.3974 C.3     1  UNL1        0.0688
     14 S         145.5838  141.9906  163.1692 S.3     1  UNL1       -0.0807
     15 C         144.8143  142.0483  161.8829 C.2     1  UNL1        0.1482
     16 N         145.4491  142.6301  160.6546 N.pl3   1  UNL1       -0.3380
     17 N         143.4100  141.5244  161.8249 N.2     1  UNL1       -0.2491
     18 H         146.3708  142.9739  160.6927 H       1  UNL1        0.1442
     19 H         144.9441  142.6680  159.8104 H       1  UNL1        0.1442
     20 C         140.1711  139.2931  165.4117 C.ar    1  UNL1        0.2204
     21 N         139.5675  139.9309  166.6278 N.ar    1  UNL1       -0.2097
     22 C         138.3903  139.2926  167.3034 C.ar    1  UNL1        0.1330
     23 C         137.8165  138.0164  166.7630 C.ar    1  UNL1        0.1784
     24 F         136.6392  137.3780  167.4387 F       1  UNL1       -0.2009
     25 C         138.4200  137.3786  165.5469 C.ar    1  UNL1        0.1330
     26 N         139.5973  138.0169  164.8713 N.ar    1  UNL1       -0.2097
     27 C         142.3820  138.4034  157.9008 C.2     1  UNL1        0.2688
     28 O         143.5661  139.3070  158.0783 O.2     1  UNL1       -0.2681
     29 N         141.1315  138.6413  158.6942 N.am    1  UNL1       -0.2791
     30 H         140.3543  138.0482  158.5776 H       1  UNL1        0.1552
     31 C         142.5814  134.9791  154.9879 C.ar    1  UNL1        0.2449
     32 C         143.8459  135.5844  155.5216 C.ar    1  UNL1        0.1565
     33 N         143.7794  136.7258  156.4925 N.ar    1  UNL1       -0.2328
     34 C         142.4485  137.2619  156.9298 C.ar    1  UNL1        0.1541
     35 C         141.1841  136.6567  156.3961 C.ar    1  UNL1        0.1258
     36 N         141.2505  135.5153  155.4251 N.ar    1  UNL1       -0.2071
     37 C         143.0498  132.4724  154.4908 C.3     1  UNL1        0.2543
     38 O         142.6480  133.8378  154.0170 O.3     1  UNL1       -0.4551
@<TRIPOS>BOND
     1    37    38    1
     2    38    31    1
     3    31    32   ar
     4    32    33   ar
     5    33    34   ar
     6    34    27    1
     7    27    28    2
     8    27    29   am
     9    29     1    1
    10     1     2   ar
    11     2     3   ar
    12     3     4   ar
    13     4     5    1
    14     4     6   ar
    15     8     6    1
    16     8     9    1
    17     9    10    1
    18    10    20    1
    19    20    21   ar
    20    21    22   ar
    21    22    23   ar
    22    23    24    1
    23    23    25   ar
    24    25    26   ar
    25    10    11    1
    26    12    11    1
    27    12    13    1
    28    13    14    1
    29    14    15    1
    30    15    16    1
    31    15    17    2
    32     6     7   ar
    33    34    35   ar
    34    35    36   ar
    35    36    31   ar
    36     7     1   ar
    37    12     8    1
    38    17     8    1
    39    26    20   ar
    40    29    30    1
    41    16    18    1
    42    16    19    1
@<TRIPOS>MOLECULE
*****
 38 42 0 0 0
SMALL
GASTEIGER

@<TRIPOS>ATOM
      1 C         142.7838  139.2160  160.1290 C.ar    1  UNL1        0.0505
      2 C         144.1372  139.2440  160.7750 C.ar    1  UNL1        0.0170
      3 C         144.5509  140.4275  161.5984 C.ar    1  UNL1        0.0306
      4 C         143.6112  141.5831  161.7757 C.ar    1  UNL1        0.1380
      5 F         144.0249  142.7667  162.5992 F       1  UNL1       -0.2044
      6 C         142.2577  141.5551  161.1297 C.ar    1  UNL1        0.0282
      7 C         141.8441  140.3715  160.3063 C.ar    1  UNL1        0.0145
      8 C         141.3180  142.7107  161.3070 C.3     1  UNL1        0.1277
      9 C         141.1768  141.6437  162.3518 C.3     1  UNL1        0.1202
     10 N         140.0950  142.0651  163.3016 N.pl3   1  UNL1       -0.2758
     11 C         139.5677  143.3927  162.8439 C.3     1  UNL1        0.0968
     12 C         140.3235  143.7917  161.6112 C.3     1  UNL1        0.0573
     13 C         140.2346  144.9997  160.7264 C.3     1  UNL1        0.0688
     14 S         141.1403  145.1267  159.5375 S.3     1  UNL1       -0.0807
     15 C         142.1348  144.0457  159.2333 C.2     1  UNL1        0.1482
     16 N         143.0404  144.1727  158.0443 N.pl3   1  UNL1       -0.3380
     17 N         142.2236  142.8377  160.1181 N.2     1  UNL1       -0.2491
     18 H         142.9821  144.9656  157.4636 H       1  UNL1        0.1442
     19 H         143.6932  143.4633  157.8446 H       1  UNL1        0.1442
     20 C         139.6235  141.2944  164.4989 C.ar    1  UNL1        0.2204
     21 N         138.5614  140.2463  164.3455 N.ar    1  UNL1       -0.2097
     22 C         138.0898  139.4755  165.5428 C.ar    1  UNL1        0.1330
     23 C         138.6803  139.7528  166.8935 C.ar    1  UNL1        0.1784
     24 F         138.2087  138.9821  168.0908 F       1  UNL1       -0.2009
     25 C         139.7423  140.8009  167.0469 C.ar    1  UNL1        0.1330
     26 N         140.2139  141.5717  165.8496 N.ar    1  UNL1       -0.2097
     27 C         142.8126  137.9213  157.8767 C.2     1  UNL1        0.2688
     28 O         143.6689  138.9938  157.2712 O.2     1  UNL1       -0.2681
     29 N         142.3701  138.0324  159.3056 N.am    1  UNL1       -0.2791
     30 H         141.8081  137.3285  159.7030 H       1  UNL1        0.1552
     31 C         141.5716  134.3706  155.4064 C.ar    1  UNL1        0.2449
     32 C         142.7296  134.2577  156.3530 C.ar    1  UNL1        0.1565
     33 N         143.1433  135.4413  157.1765 N.ar    1  UNL1       -0.2328
     34 C         142.3990  136.7377  157.0532 C.ar    1  UNL1        0.1541
     35 C         141.2409  136.8505  156.1066 C.ar    1  UNL1        0.1258
     36 N         140.8272  135.6670  155.2831 N.ar    1  UNL1       -0.2071
     37 C         141.4398  131.7974  155.0725 C.3     1  UNL1        0.2543
     38 O         141.1580  133.1870  154.5830 O.3     1  UNL1       -0.4551
@<TRIPOS>BOND
     1    37    38    1
     2    38    31    1
     3    31    32   ar
     4    32    33   ar
     5    33    34   ar
     6    34    27    1
     7    27    28    2
     8    27    29   am
     9    29     1    1
    10     1     2   ar
    11     2     3   ar
    12     3     4   ar
    13     4     5    1
    14     4     6   ar
    15     8     6    1
    16     8     9    1
    17     9    10    1
    18    10    20    1
    19    20    21   ar
    20    21    22   ar
    21    22    23   ar
    22    23    24    1
    23    23    25   ar
    24    25    26   ar
    25    10    11    1
    26    12    11    1
    27    12    13    1
    28    13    14    1
    29    14    15    1
    30    15    16    1
    31    15    17    2
    32     6     7   ar
    33    34    35   ar
    34    35    36   ar
    35    36    31   ar
    36     7     1   ar
    37    12     8    1
    38    17     8    1
    39    26    20   ar
    40    29    30    1
    41    16    18    1
    42    16    19    1
@<TRIPOS>MOLECULE
*****
 38 42 0 0 0
SMALL
GASTEIGER

@<TRIPOS>ATOM
      1 C         139.5097  143.1398  161.4463 C.ar    1  UNL1        0.0505
      2 C         139.3344  144.4675  162.1219 C.ar    1  UNL1        0.0170
      3 C         140.1944  144.8310  163.2958 C.ar    1  UNL1        0.0306
      4 C         141.2297  143.8667  163.7942 C.ar    1  UNL1        0.1380
      5 F         142.0898  144.2302  164.9682 F       1  UNL1       -0.2044
      6 C         141.4050  142.5390  163.1186 C.ar    1  UNL1        0.0282
      7 C         140.5449  142.1756  161.9446 C.ar    1  UNL1        0.0145
      8 C         142.4403  141.5748  163.6170 C.3     1  UNL1        0.1277
      9 C         141.0527  141.2890  164.1101 C.3     1  UNL1        0.1202
     10 N         141.1142  140.0758  164.9902 N.pl3   1  UNL1       -0.2758
     11 C         142.5397  139.6118  165.0409 C.3     1  UNL1        0.0968
     12 C         143.3593  140.5382  164.1922 C.3     1  UNL1        0.0573
     13 C         144.8236  140.5718  163.8690 C.3     1  UNL1        0.0688
     14 S         145.3689  141.6419  162.9704 S.3     1  UNL1       -0.0807
     15 C         144.4499  142.6785  162.3952 C.2     1  UNL1        0.1482
     16 N         144.9953  143.7486  161.4966 N.pl3   1  UNL1       -0.3380
     17 N         142.9856  142.6449  162.7184 N.2     1  UNL1       -0.2491
     18 H         145.9564  143.7707  161.2844 H       1  UNL1        0.1442
     19 H         144.3921  144.4290  161.1190 H       1  UNL1        0.1442
     20 C         139.9539  139.4386  165.6956 C.ar    1  UNL1        0.2204
     21 N         139.4387  140.0278  166.9752 N.ar    1  UNL1       -0.2097
     22 C         138.2784  139.3906  167.6806 C.ar    1  UNL1        0.1330
     23 C         137.6333  138.1641  167.1065 C.ar    1  UNL1        0.1784
     24 F         136.4730  137.5269  167.8119 F       1  UNL1       -0.2009
     25 C         138.1485  137.5750  165.8269 C.ar    1  UNL1        0.1330
     26 N         139.3088  138.2122  165.1214 N.ar    1  UNL1       -0.2097
     27 C         139.1678  142.9623  158.8770 C.2     1  UNL1        0.2688
     28 O         140.5459  143.5115  158.6556 O.2     1  UNL1       -0.2681
     29 N         138.6496  142.7764  160.2723 N.am    1  UNL1       -0.2791
     30 H         137.7451  142.4159  160.4176 H       1  UNL1        0.1552
     31 C         136.5877  141.8721  155.3548 C.ar    1  UNL1        0.2449
     32 C         136.6910  140.9403  156.5258 C.ar    1  UNL1        0.1565
     33 N         137.5510  141.3037  157.6999 N.ar    1  UNL1       -0.2328
     34 C         138.3077  142.5988  157.7029 C.ar    1  UNL1        0.1541
     35 C         138.2044  143.5306  156.5319 C.ar    1  UNL1        0.1258
     36 N         137.3444  143.1672  155.3579 N.ar    1  UNL1       -0.2071
     37 C         134.2512  141.3174  154.3634 C.3     1  UNL1        0.2543
     38 O         135.7277  141.5087  154.1809 O.3     1  UNL1       -0.4551
@<TRIPOS>BOND
     1    37    38    1
     2    38    31    1
     3    31    32   ar
     4    32    33   ar
     5    33    34   ar
     6    34    27    1
     7    27    28    2
     8    27    29   am
     9    29     1    1
    10     1     2   ar
    11     2     3   ar
    12     3     4   ar
    13     4     5    1
    14     4     6   ar
    15     8     6    1
    16     8     9    1
    17     9    10    1
    18    10    20    1
    19    20    21   ar
    20    21    22   ar
    21    22    23   ar
    22    23    24    1
    23    23    25   ar
    24    25    26   ar
    25    10    11    1
    26    12    11    1
    27    12    13    1
    28    13    14    1
    29    14    15    1
    30    15    16    1
    31    15    17    2
    32     6     7   ar
    33    34    35   ar
    34    35    36   ar
    35    36    31   ar
    36     7     1   ar
    37    12     8    1
    38    17     8    1
    39    26    20   ar
    40    29    30    1
    41    16    18    1
    42    16    19    1
@<TRIPOS>MOLECULE
*****
 38 42 0 0 0
SMALL
GASTEIGER

@<TRIPOS>ATOM
      1 C         141.2137  139.0676  159.0533 C.ar    1  UNL1        0.0505
      2 C         142.5664  139.7043  158.9312 C.ar    1  UNL1        0.0170
      3 C         143.3567  139.5496  157.6658 C.ar    1  UNL1        0.0306
      4 C         142.7943  138.7581  156.5224 C.ar    1  UNL1        0.1380
      5 F         143.5846  138.6034  155.2568 F       1  UNL1       -0.2044
      6 C         141.4416  138.1214  156.6445 C.ar    1  UNL1        0.0282
      7 C         140.6514  138.2762  157.9100 C.ar    1  UNL1        0.0145
      8 C         140.8792  137.3300  155.5011 C.3     1  UNL1        0.1277
      9 C         141.7716  136.5383  156.4105 C.3     1  UNL1        0.1202
     10 N         141.8397  135.1346  155.8863 N.pl3   1  UNL1       -0.2758
     11 C         140.9894  135.0587  154.6529 C.3     1  UNL1        0.0968
     12 C         140.3958  136.4155  154.4148 C.3     1  UNL1        0.0573
     13 C         139.4776  136.9363  153.3493 C.3     1  UNL1        0.0688
     14 S         139.0427  138.3717  153.3700 S.3     1  UNL1       -0.0807
     15 C         139.5261  139.2863  154.4563 C.2     1  UNL1        0.1482
     16 N         139.0912  140.7217  154.4769 N.pl3   1  UNL1       -0.3380
     17 N         140.4443  138.7654  155.5218 N.2     1  UNL1       -0.2491
     18 H         138.4885  141.0636  153.7776 H       1  UNL1        0.1442
     19 H         139.4084  141.3220  155.1899 H       1  UNL1        0.1442
     20 C         142.6210  134.0051  156.4895 C.ar    1  UNL1        0.2204
     21 N         143.8404  134.2929  157.3142 N.ar    1  UNL1       -0.2097
     22 C         144.6216  133.1635  157.9175 C.ar    1  UNL1        0.1330
     23 C         144.1834  131.7461  157.6961 C.ar    1  UNL1        0.1784
     24 F         144.9647  130.6166  158.2993 F       1  UNL1       -0.2009
     25 C         142.9640  131.4582  156.8714 C.ar    1  UNL1        0.1330
     26 N         142.1828  132.5877  156.2681 N.ar    1  UNL1       -0.2097
     27 C         140.7399  138.3672  161.5099 C.2     1  UNL1        0.2688
     28 O         141.8464  137.3573  161.4354 O.2     1  UNL1       -0.2681
     29 N         140.4235  139.2224  160.3188 N.am    1  UNL1       -0.2791
     30 H         139.6972  139.8852  160.3677 H       1  UNL1        0.1552
     31 C         138.3691  138.8315  165.3065 C.ar    1  UNL1        0.2449
     32 C         139.2838  137.6554  165.1325 C.ar    1  UNL1        0.1565
     33 N         140.0740  137.5006  163.8670 N.ar    1  UNL1       -0.2328
     34 C         139.9496  138.5220  162.7755 C.ar    1  UNL1        0.1541
     35 C         139.0350  139.6980  162.9495 C.ar    1  UNL1        0.1258
     36 N         138.2447  139.8528  164.2150 N.ar    1  UNL1       -0.2071
     37 C         137.1345  137.7717  167.3320 C.3     1  UNL1        0.2543
     38 O         137.5790  138.9862  166.5720 O.3     1  UNL1       -0.4551
@<TRIPOS>BOND
     1    37    38    1
     2    38    31    1
     3    31    32   ar
     4    32    33   ar
     5    33    34   ar
     6    34    27    1
     7    27    28    2
     8    27    29   am
     9    29     1    1
    10     1     2   ar
    11     2     3   ar
    12     3     4   ar
    13     4     5    1
    14     4     6   ar
    15     8     6    1
    16     8     9    1
    17     9    10    1
    18    10    20    1
    19    20    21   ar
    20    21    22   ar
    21    22    23   ar
    22    23    24    1
    23    23    25   ar
    24    25    26   ar
    25    10    11    1
    26    12    11    1
    27    12    13    1
    28    13    14    1
    29    14    15    1
    30    15    16    1
    31    15    17    2
    32     6     7   ar
    33    34    35   ar
    34    35    36   ar
    35    36    31   ar
    36     7     1   ar
    37    12     8    1
    38    17     8    1
    39    26    20   ar
    40    29    30    1
    41    16    18    1
    42    16    19    1
@<TRIPOS>MOLECULE
*****
 38 42 0 0 0
SMALL
GASTEIGER

@<TRIPOS>ATOM
      1 C         137.7944  141.0539  156.9216 C.ar    1  UNL1        0.0505
      2 C         138.8421  140.0071  156.6838 C.ar    1  UNL1        0.0170
      3 C         140.2555  140.4139  156.3894 C.ar    1  UNL1        0.0306
      4 C         140.6212  141.8676  156.3328 C.ar    1  UNL1        0.1380
      5 F         142.0347  142.2744  156.0383 F       1  UNL1       -0.2044
      6 C         139.5735  142.9143  156.5706 C.ar    1  UNL1        0.0282
      7 C         138.1601  142.5075  156.8650 C.ar    1  UNL1        0.0145
      8 C         139.9392  144.3680  156.5140 C.3     1  UNL1        0.1277
      9 C         139.9558  143.7881  157.8973 C.3     1  UNL1        0.1202
     10 N         140.3486  144.8767  158.8516 N.pl3   1  UNL1       -0.2758
     11 C         140.5749  146.1293  158.0581 C.3     1  UNL1        0.0968
     12 C         140.3219  145.8150  156.6134 C.3     1  UNL1        0.0573
     13 C         140.3905  146.6593  155.3755 C.3     1  UNL1        0.0688
     14 S         140.0765  146.0567  154.0383 S.3     1  UNL1       -0.0807
     15 C         139.6939  144.6097  153.9389 C.2     1  UNL1        0.1482
     16 N         139.3798  144.0071  152.6016 N.pl3   1  UNL1       -0.3380
     17 N         139.6252  143.7654  155.1768 N.2     1  UNL1       -0.2491
     18 H         139.4249  144.5613  151.7892 H       1  UNL1        0.1442
     19 H         139.1287  143.0574  152.5364 H       1  UNL1        0.1442
     20 C         140.4903  144.7371  160.3384 C.ar    1  UNL1        0.2204
     21 N         139.2706  144.5728  161.1959 N.ar    1  UNL1       -0.2097
     22 C         139.4123  144.4333  162.6826 C.ar    1  UNL1        0.1330
     23 C         140.7736  144.4580  163.3119 C.ar    1  UNL1        0.1784
     24 F         140.9153  144.3184  164.7986 F       1  UNL1       -0.2009
     25 C         141.9933  144.6223  162.4544 C.ar    1  UNL1        0.1330
     26 N         141.8516  144.7619  160.9676 N.ar    1  UNL1       -0.2097
     27 C         135.3529  140.6636  156.1239 C.2     1  UNL1        0.2688
     28 O         135.7381  141.0870  154.7375 O.2     1  UNL1       -0.2681
     29 N         136.3810  140.6470  157.2160 N.am    1  UNL1       -0.2791
     30 H         136.1281  140.3691  158.1260 H       1  UNL1        0.1552
     31 C         131.1125  139.4430  157.0070 C.ar    1  UNL1        0.2449
     32 C         132.2536  138.6930  157.6278 C.ar    1  UNL1        0.1565
     33 N         133.6670  139.0998  157.3335 N.ar    1  UNL1       -0.2328
     34 C         133.9394  140.2567  156.4183 C.ar    1  UNL1        0.1541
     35 C         132.7983  141.0067  155.7975 C.ar    1  UNL1        0.1258
     36 N         131.3848  140.5999  156.0918 N.ar    1  UNL1       -0.2071
     37 C         129.2767  138.7601  158.7140 C.3     1  UNL1        0.2543
     38 O         129.6991  139.0362  157.3013 O.3     1  UNL1       -0.4551
@<TRIPOS>BOND
     1    37    38    1
     2    38    31    1
     3    31    32   ar
     4    32    33   ar
     5    33    34   ar
     6    34    27    1
     7    27    28    2
     8    27    29   am
     9    29     1    1
    10     1     2   ar
    11     2     3   ar
    12     3     4   ar
    13     4     5    1
    14     4     6   ar
    15     8     6    1
    16     8     9    1
    17     9    10    1
    18    10    20    1
    19    20    21   ar
    20    21    22   ar
    21    22    23   ar
    22    23    24    1
    23    23    25   ar
    24    25    26   ar
    25    10    11    1
    26    12    11    1
    27    12    13    1
    28    13    14    1
    29    14    15    1
    30    15    16    1
    31    15    17    2
    32     6     7   ar
    33    34    35   ar
    34    35    36   ar
    35    36    31   ar
    36     7     1   ar
    37    12     8    1
    38    17     8    1
    39    26    20   ar
    40    29    30    1
    41    16    18    1
    42    16    19    1
@<TRIPOS>MOLECULE
*****
 38 42 0 0 0
SMALL
GASTEIGER

@<TRIPOS>ATOM
      1 C         139.8197  139.3961  161.2245 C.ar    1  UNL1        0.0505
      2 C         138.4306  139.0607  161.6803 C.ar    1  UNL1        0.0170
      3 C         137.7367  139.9383  162.6794 C.ar    1  UNL1        0.0306
      4 C         138.4320  141.1512  163.2228 C.ar    1  UNL1        0.1380
      5 F         137.7380  142.0288  164.2221 F       1  UNL1       -0.2044
      6 C         139.8211  141.4866  162.7671 C.ar    1  UNL1        0.0282
      7 C         140.5150  140.6090  161.7680 C.ar    1  UNL1        0.0145
      8 C         140.5164  142.6995  163.3106 C.3     1  UNL1        0.1277
      9 C         140.5614  141.5102  164.2235 C.3     1  UNL1        0.1202
     10 N         141.3182  141.9018  165.4580 N.pl3   1  UNL1       -0.2758
     11 C         141.7409  143.3332  165.3080 C.3     1  UNL1        0.0968
     12 C         141.2454  143.8262  163.9808 C.3     1  UNL1        0.0573
     13 C         141.3638  145.1555  163.2960 C.3     1  UNL1        0.0688
     14 S         140.7532  145.3581  161.9410 S.3     1  UNL1       -0.0807
     15 C         140.0242  144.2314  161.2708 C.2     1  UNL1        0.1482
     16 N         139.4136  144.4341  159.9157 N.pl3   1  UNL1       -0.3380
     17 N         139.9058  142.9022  161.9556 N.2     1  UNL1       -0.2491
     18 H         139.4913  145.3066  159.4663 H       1  UNL1        0.1442
     19 H         138.9352  143.6946  159.4758 H       1  UNL1        0.1442
     20 C         141.6024  141.0173  166.6357 C.ar    1  UNL1        0.2204
     21 N         140.8246  141.1881  167.9069 N.ar    1  UNL1       -0.2097
     22 C         141.1088  140.3036  169.0846 C.ar    1  UNL1        0.1330
     23 C         142.1708  139.2484  168.9911 C.ar    1  UNL1        0.1784
     24 F         142.4549  138.3640  170.1688 F       1  UNL1       -0.2009
     25 C         142.9485  139.0777  167.7200 C.ar    1  UNL1        0.1330
     26 N         142.6644  139.9622  166.5423 N.ar    1  UNL1       -0.2097
     27 C         140.4328  138.8386  158.7622 C.2     1  UNL1        0.2688
     28 O         139.6580  140.0364  158.2982 O.2     1  UNL1       -0.2681
     29 N         140.5136  138.5185  160.2254 N.am    1  UNL1       -0.2791
     30 H         141.0221  137.7324  160.5299 H       1  UNL1        0.1552
     31 C         142.5144  136.2059  155.7645 C.ar    1  UNL1        0.2449
     32 C         141.0225  136.3560  155.7226 C.ar    1  UNL1        0.1565
     33 N         140.3286  137.2335  156.7218 N.ar    1  UNL1       -0.2328
     34 C         141.1266  137.9610  157.7629 C.ar    1  UNL1        0.1541
     35 C         142.6185  137.8110  157.8048 C.ar    1  UNL1        0.1258
     36 N         143.3124  136.9334  156.8056 N.ar    1  UNL1       -0.2071
     37 C         142.4098  134.3934  153.9060 C.3     1  UNL1        0.2543
     38 O         143.2083  135.3284  154.7653 O.3     1  UNL1       -0.4551
@<TRIPOS>BOND
     1    37    38    1
     2    38    31    1
     3    31    32   ar
     4    32    33   ar
     5    33    34   ar
     6    34    27    1
     7    27    28    2
     8    27    29   am
     9    29     1    1
    10     1     2   ar
    11     2     3   ar
    12     3     4   ar
    13     4     5    1
    14     4     6   ar
    15     8     6    1
    16     8     9    1
    17     9    10    1
    18    10    20    1
    19    20    21   ar
    20    21    22   ar
    21    22    23   ar
    22    23    24    1
    23    23    25   ar
    24    25    26   ar
    25    10    11    1
    26    12    11    1
    27    12    13    1
    28    13    14    1
    29    14    15    1
    30    15    16    1
    31    15    17    2
    32     6     7   ar
    33    34    35   ar
    34    35    36   ar
    35    36    31   ar
    36     7     1   ar
    37    12     8    1
    38    17     8    1
    39    26    20   ar
    40    29    30    1
    41    16    18    1
    42    16    19    1
@<TRIPOS>MOLECULE
*****
 38 42 0 0 0
SMALL
GASTEIGER

@<TRIPOS>ATOM
      1 C         141.3507  138.4505  160.3119 C.ar    1  UNL1        0.0505
      2 C         139.9144  138.6272  159.9172 C.ar    1  UNL1        0.0170
      3 C         139.5466  138.7729  158.4704 C.ar    1  UNL1        0.0306
      4 C         140.6152  138.7420  157.4181 C.ar    1  UNL1        0.1380
      5 F         140.2474  138.8878  155.9712 F       1  UNL1       -0.2044
      6 C         142.0515  138.5653  157.8128 C.ar    1  UNL1        0.0282
      7 C         142.4192  138.4196  159.2597 C.ar    1  UNL1        0.0145
      8 C         143.1201  138.5344  156.7605 C.3     1  UNL1        0.1277
      9 C         142.6013  137.1800  157.1432 C.3     1  UNL1        0.1202
     10 N         143.3337  136.1557  156.3281 N.pl3   1  UNL1       -0.2758
     11 C         144.3052  136.8772  155.4416 C.3     1  UNL1        0.0968
     12 C         144.1731  138.3472  155.7089 C.3     1  UNL1        0.0573
     13 C         144.8758  139.5396  155.1305 C.3     1  UNL1        0.0688
     14 S         144.5253  140.9191  155.6038 S.3     1  UNL1       -0.0807
     15 C         143.4722  141.1063  156.6554 C.2     1  UNL1        0.1482
     16 N         143.1217  142.4859  157.1287 N.pl3   1  UNL1       -0.3380
     17 N         142.7696  139.9139  157.2338 N.2     1  UNL1       -0.2491
     18 H         143.5829  143.2685  156.7491 H       1  UNL1        0.1442
     19 H         142.4306  142.6088  157.8189 H       1  UNL1        0.1442
     20 C         143.1304  134.6708  156.3888 C.ar    1  UNL1        0.2204
     21 N         142.0120  134.0348  155.6177 N.ar    1  UNL1       -0.2097
     22 C         141.8087  132.5499  155.6784 C.ar    1  UNL1        0.1330
     23 C         142.7238  131.7010  156.5102 C.ar    1  UNL1        0.1784
     24 F         142.5205  130.2161  156.5709 F       1  UNL1       -0.2009
     25 C         143.8422  132.3370  157.2813 C.ar    1  UNL1        0.1330
     26 N         144.0455  133.8219  157.2206 N.ar    1  UNL1       -0.2097
     27 C         141.6819  139.4988  162.6658 C.2     1  UNL1        0.2688
     28 O         141.2777  140.8387  162.1260 O.2     1  UNL1       -0.2681
     29 N         141.7184  138.3047  161.7588 N.am    1  UNL1       -0.2791
     30 H         141.9837  137.4253  162.1131 H       1  UNL1        0.1552
     31 C         142.7852  139.0616  167.0066 C.ar    1  UNL1        0.2449
     32 C         141.4621  139.6567  166.6252 C.ar    1  UNL1        0.1565
     33 N         141.0943  139.8024  165.1783 N.ar    1  UNL1       -0.2328
     34 C         142.0496  139.3531  164.1128 C.ar    1  UNL1        0.1541
     35 C         143.3727  138.7580  164.4941 C.ar    1  UNL1        0.1258
     36 N         143.7405  138.6123  165.9410 N.ar    1  UNL1       -0.2071
     37 C         142.2396  139.4500  169.5169 C.3     1  UNL1        0.2543
     38 O         143.1529  138.9159  168.4534 O.3     1  UNL1       -0.4551
@<TRIPOS>BOND
     1    37    38    1
     2    38    31    1
     3    31    32   ar
     4    32    33   ar
     5    33    34   ar
     6    34    27    1
     7    27    28    2
     8    27    29   am
     9    29     1    1
    10     1     2   ar
    11     2     3   ar
    12     3     4   ar
    13     4     5    1
    14     4     6   ar
    15     8     6    1
    16     8     9    1
    17     9    10    1
    18    10    20    1
    19    20    21   ar
    20    21    22   ar
    21    22    23   ar
    22    23    24    1
    23    23    25   ar
    24    25    26   ar
    25    10    11    1
    26    12    11    1
    27    12    13    1
    28    13    14    1
    29    14    15    1
    30    15    16    1
    31    15    17    2
    32     6     7   ar
    33    34    35   ar
    34    35    36   ar
    35    36    31   ar
    36     7     1   ar
    37    12     8    1
    38    17     8    1
    39    26    20   ar
    40    29    30    1
    41    16    18    1
    42    16    19    1
@<TRIPOS>MOLECULE
*****
 38 42 0 0 0
SMALL
GASTEIGER

@<TRIPOS>ATOM
      1 C         140.4237  141.9395  160.6189 C.ar    1  UNL1        0.0505
      2 C         139.3769  143.0128  160.5718 C.ar    1  UNL1        0.0170
      3 C         139.1938  143.9337  161.7414 C.ar    1  UNL1        0.0306
      4 C         140.0575  143.7814  162.9583 C.ar    1  UNL1        0.1380
      5 F         139.8744  144.7025  164.1281 F       1  UNL1       -0.2044
      6 C         141.1043  142.7082  163.0055 C.ar    1  UNL1        0.0282
      7 C         141.2874  141.7872  161.8357 C.ar    1  UNL1        0.0145
      8 C         141.9680  142.5559  164.2224 C.3     1  UNL1        0.1277
      9 C         140.8044  141.6104  164.1780 C.3     1  UNL1        0.1202
     10 N         140.8511  140.7594  165.4123 N.pl3   1  UNL1       -0.2758
     11 C         142.0438  141.1788  166.2195 C.3     1  UNL1        0.0968
     12 C         142.7341  142.2891  165.4841 C.3     1  UNL1        0.0573
     13 C         143.9612  143.0917  165.8004 C.3     1  UNL1        0.0688
     14 S         144.4222  144.1610  164.8550 S.3     1  UNL1       -0.0807
     15 C         143.6562  144.4277  163.5932 C.2     1  UNL1        0.1482
     16 N         144.1173  145.4971  162.6477 N.pl3   1  UNL1       -0.3380
     17 N         142.4291  143.6252  163.2769 N.2     1  UNL1       -0.2491
     18 H         144.9227  146.0238  162.8553 H       1  UNL1        0.1442
     19 H         143.6146  145.6722  161.8196 H       1  UNL1        0.1442
     20 C         139.8765  139.6786  165.7755 C.ar    1  UNL1        0.2204
     21 N         139.8177  138.4181  164.9647 N.ar    1  UNL1       -0.2097
     22 C         138.8430  137.3373  165.3279 C.ar    1  UNL1        0.1330
     23 C         137.9271  137.5171  166.5021 C.ar    1  UNL1        0.1784
     24 F         136.9524  136.4364  166.8653 F       1  UNL1       -0.2009
     25 C         137.9858  138.7776  167.3129 C.ar    1  UNL1        0.1330
     26 N         138.9605  139.8584  166.9497 N.ar    1  UNL1       -0.2097
     27 C         140.3635  139.5470  159.6080 C.2     1  UNL1        0.2688
     28 O         139.9370  138.9964  160.9365 O.2     1  UNL1       -0.2681
     29 N         140.6068  141.0185  159.4492 N.am    1  UNL1       -0.2791
     30 H         140.8867  141.3799  158.5772 H       1  UNL1        0.1552
     31 C         140.9128  136.7839  156.0989 C.ar    1  UNL1        0.2449
     32 C         139.5895  137.4524  156.3272 C.ar    1  UNL1        0.1565
     33 N         139.4064  138.3734  157.4968 N.ar    1  UNL1       -0.2328
     34 C         140.5465  138.6259  158.4382 C.ar    1  UNL1        0.1541
     35 C         141.8698  137.9574  158.2100 C.ar    1  UNL1        0.1258
     36 N         142.0529  137.0364  157.0403 N.ar    1  UNL1       -0.2071
     37 C         141.4536  134.4239  155.1563 C.3     1  UNL1        0.2543
     38 O         141.0958  135.8629  154.9292 O.3     1  UNL1       -0.4551
@<TRIPOS>BOND
     1    37    38    1
     2    38    31    1
     3    31    32   ar
     4    32    33   ar
     5    33    34   ar
     6    34    27    1
     7    27    28    2
     8    27    29   am
     9    29     1    1
    10     1     2   ar
    11     2     3   ar
    12     3     4   ar
    13     4     5    1
    14     4     6   ar
    15     8     6    1
    16     8     9    1
    17     9    10    1
    18    10    20    1
    19    20    21   ar
    20    21    22   ar
    21    22    23   ar
    22    23    24    1
    23    23    25   ar
    24    25    26   ar
    25    10    11    1
    26    12    11    1
    27    12    13    1
    28    13    14    1
    29    14    15    1
    30    15    16    1
    31    15    17    2
    32     6     7   ar
    33    34    35   ar
    34    35    36   ar
    35    36    31   ar
    36     7     1   ar
    37    12     8    1
    38    17     8    1
    39    26    20   ar
    40    29    30    1
    41    16    18    1
    42    16    19    1
