@<TRIPOS>MOLECULE
*****
 30 33 0 0 0
SMALL
GASTEIGER

@<TRIPOS>ATOM
      1 C         140.1200  144.5429  161.0222 C.ar    1  UNL1        0.1638
      2 C         141.5339  144.7907  161.4577 C.ar    1  UNL1        0.0727
      3 C         142.0731  144.1076  162.6793 C.ar    1  UNL1        0.1333
      4 N         141.1985  143.1765  163.4655 N.ar    1  UNL1       -0.2103
      5 C         139.7847  142.9286  163.0301 C.ar    1  UNL1        0.1890
      6 C         139.2454  143.6118  161.8084 C.ar    1  UNL1        0.1740
      7 N         137.8222  143.1756  161.6235 N.ar    1  UNL1       -0.1237
      8 N         137.4819  142.2228  162.7309 N.ar    1  UNL1       -0.0581
      9 N         138.6948  142.0701  163.6002 N.ar    1  UNL1       -0.1928
     10 C         138.7993  141.2100  164.8246 C.ar    1  UNL1        0.0873
     11 C         138.0972  139.8853  164.8727 C.ar    1  UNL1        0.0193
     12 C         138.2017  139.0251  166.0972 C.ar    1  UNL1        0.0028
     13 C         139.0082  139.4896  167.2734 C.ar    1  UNL1        0.0146
     14 C         139.7103  140.8144  167.2253 C.ar    1  UNL1        0.0494
     15 C         139.6059  141.6745  166.0009 C.ar    1  UNL1        0.0338
     16 N         140.5169  141.2788  168.4016 N.pl3   1  UNL1       -0.3040
     17 C         140.6459  142.7450  168.6908 C.3     1  UNL1        0.1122
     18 C         141.1945  140.2769  169.2889 C.3     1  UNL1        0.1122
     19 C         140.4669  145.4429  158.6098 C.3     1  UNL1        0.2525
     20 O         139.5808  145.2262  159.8005 O.3     1  UNL1       -0.4696
     21 N         143.4870  144.3554  163.1148 N.pl3   1  UNL1       -0.3180
     22 H         143.6798  145.0413  163.7942 H       1  UNL1        0.1482
     23 C         144.6071  143.5581  162.5150 C.3     1  UNL1        0.0882
     24 C         144.6342  142.0666  162.6726 C.3     1  UNL1        0.0223
     25 C         144.1984  141.1848  161.5400 C.3     1  UNL1        0.0188
     26 C         144.2255  139.6933  161.6976 C.3     1  UNL1        0.0686
     27 N         144.6883  139.0837  162.9876 N.3     1  UNL1       -0.2975
     28 C         145.1239  139.9655  164.1201 C.3     1  UNL1        0.0686
     29 C         145.0969  141.4570  163.9626 C.3     1  UNL1        0.0188
     30 H         145.4802  138.4819  162.7615 H       1  UNL1        0.1232
@<TRIPOS>BOND
     1    19    20    1
     2    20     1    1
     3     1     2   ar
     4     2     3   ar
     5     3    21    1
     6    21    23    1
     7    23    24    1
     8    24    25    1
     9    25    26    1
    10    26    27    1
    11    27    28    1
    12    28    29    1
    13     3     4   ar
    14     4     5   ar
    15     5     6   ar
    16     6     7   ar
    17     7     8   ar
    18     8     9   ar
    19     9    10    1
    20    10    11   ar
    21    11    12   ar
    22    12    13   ar
    23    13    14   ar
    24    14    16    1
    25    16    17    1
    26    16    18    1
    27    14    15   ar
    28     6     1   ar
    29    15    10   ar
    30    29    24    1
    31     9     5   ar
    32    21    22    1
    33    27    30    1
@<TRIPOS>MOLECULE
*****
 30 33 0 0 0
SMALL
GASTEIGER

@<TRIPOS>ATOM
      1 C         137.8046  140.4293  162.1512 C.ar    1  UNL1        0.1638
      2 C         137.4585  141.8259  162.5755 C.ar    1  UNL1        0.0727
      3 C         138.0321  142.3889  163.8418 C.ar    1  UNL1        0.1333
      4 N         138.9519  141.5555  164.6841 N.ar    1  UNL1       -0.2103
      5 C         139.2980  140.1590  164.2599 C.ar    1  UNL1        0.1890
      6 C         138.7244  139.5959  162.9935 C.ar    1  UNL1        0.1740
      7 N         139.2422  138.1974  162.8317 N.ar    1  UNL1       -0.1237
      8 N         140.1359  137.8962  163.9981 N.ar    1  UNL1       -0.0581
      9 N         140.1704  139.1085  164.8808 N.ar    1  UNL1       -0.1928
     10 C         140.9419  139.2462  166.1598 C.ar    1  UNL1        0.0873
     11 C         142.3862  138.8447  166.2113 C.ar    1  UNL1        0.0193
     12 C         143.1578  138.9823  167.4904 C.ar    1  UNL1        0.0028
     13 C         142.4850  139.5214  168.7178 C.ar    1  UNL1        0.0146
     14 C         141.0406  139.9229  168.6662 C.ar    1  UNL1        0.0494
     15 C         140.2691  139.7853  167.3872 C.ar    1  UNL1        0.0338
     16 N         140.3678  140.4621  169.8937 N.pl3   1  UNL1       -0.3040
     17 C         141.1910  141.0239  171.0147 C.3     1  UNL1        0.1122
     18 C         138.8717  140.4394  170.0001 C.3     1  UNL1        0.1122
     19 C         137.8782  140.1728  159.5669 C.3     1  UNL1        0.2525
     20 O         137.2308  139.8662  160.8848 O.3     1  UNL1       -0.4696
     21 N         137.6861  143.7855  164.2661 N.pl3   1  UNL1       -0.3180
     22 H         136.7454  144.0369  164.4118 H       1  UNL1        0.1482
     23 C         138.7732  144.7990  164.4683 C.3     1  UNL1        0.0882
     24 C         139.8858  144.9148  163.4689 C.3     1  UNL1        0.0223
     25 C         139.5843  145.3083  162.0531 C.3     1  UNL1        0.0188
     26 C         140.6969  145.4242  161.0538 C.3     1  UNL1        0.0686
     27 N         142.1109  145.1466  161.4701 N.3     1  UNL1       -0.2975
     28 C         142.4124  144.7532  162.8859 C.3     1  UNL1        0.0686
     29 C         141.2999  144.6373  163.8852 C.3     1  UNL1        0.0188
     30 H         142.6456  145.9941  161.2798 H       1  UNL1        0.1232
@<TRIPOS>BOND
     1    19    20    1
     2    20     1    1
     3     1     2   ar
     4     2     3   ar
     5     3    21    1
     6    21    23    1
     7    23    24    1
     8    24    25    1
     9    25    26    1
    10    26    27    1
    11    27    28    1
    12    28    29    1
    13     3     4   ar
    14     4     5   ar
    15     5     6   ar
    16     6     7   ar
    17     7     8   ar
    18     8     9   ar
    19     9    10    1
    20    10    11   ar
    21    11    12   ar
    22    12    13   ar
    23    13    14   ar
    24    14    16    1
    25    16    17    1
    26    16    18    1
    27    14    15   ar
    28     6     1   ar
    29    15    10   ar
    30    29    24    1
    31     9     5   ar
    32    21    22    1
    33    27    30    1
@<TRIPOS>MOLECULE
*****
 30 33 0 0 0
SMALL
GASTEIGER

@<TRIPOS>ATOM
      1 C         139.3230  143.8227  161.8942 C.ar    1  UNL1        0.1638
      2 C         138.3086  142.7443  161.6529 C.ar    1  UNL1        0.0727
      3 C         138.3443  141.4853  162.4674 C.ar    1  UNL1        0.1333
      4 N         139.3944  141.3045  163.5231 N.ar    1  UNL1       -0.2103
      5 C         140.4088  142.3828  163.7644 C.ar    1  UNL1        0.1890
      6 C         140.3730  143.6420  162.9500 C.ar    1  UNL1        0.1740
      7 N         141.4955  144.5239  163.4105 N.ar    1  UNL1       -0.1237
      8 N         142.2250  143.8099  164.5096 N.ar    1  UNL1       -0.0581
      9 N         141.5534  142.4866  164.7283 N.ar    1  UNL1       -0.1928
     10 C         141.9557  141.4493  165.7343 C.ar    1  UNL1        0.0873
     11 C         142.0611  140.0098  165.3261 C.ar    1  UNL1        0.0193
     12 C         142.4634  138.9724  166.3321 C.ar    1  UNL1        0.0028
     13 C         142.7604  139.3745  167.7463 C.ar    1  UNL1        0.0146
     14 C         142.6550  140.8141  168.1545 C.ar    1  UNL1        0.0494
     15 C         142.2527  141.8515  167.1486 C.ar    1  UNL1        0.0338
     16 N         142.9520  141.2162  169.5688 N.pl3   1  UNL1       -0.3040
     17 C         142.3087  140.4826  170.7080 C.3     1  UNL1        0.1122
     18 C         143.8924  142.3521  169.8437 C.3     1  UNL1        0.1122
     19 C         140.3332  145.3281  160.0333 C.3     1  UNL1        0.2525
     20 O         139.2872  145.0819  161.0797 O.3     1  UNL1       -0.4696
     21 N         137.3300  140.4068  162.2261 N.pl3   1  UNL1       -0.3180
     22 H         136.4014  140.5275  162.5300 H       1  UNL1        0.1482
     23 C         137.7305  139.1446  161.5217 C.3     1  UNL1        0.0882
     24 C         139.0608  138.5145  161.8102 C.3     1  UNL1        0.0223
     25 C         139.2744  137.7676  163.0935 C.3     1  UNL1        0.0188
     26 C         140.6048  137.1375  163.3819 C.3     1  UNL1        0.0686
     27 N         141.7214  137.2543  162.3873 N.3     1  UNL1       -0.2975
     28 C         141.5079  138.0011  161.1041 C.3     1  UNL1        0.0686
     29 C         140.1776  138.6312  160.8156 C.3     1  UNL1        0.0188
     30 H         141.9903  136.3037  162.1335 H       1  UNL1        0.1232
@<TRIPOS>BOND
     1    19    20    1
     2    20     1    1
     3     1     2   ar
     4     2     3   ar
     5     3    21    1
     6    21    23    1
     7    23    24    1
     8    24    25    1
     9    25    26    1
    10    26    27    1
    11    27    28    1
    12    28    29    1
    13     3     4   ar
    14     4     5   ar
    15     5     6   ar
    16     6     7   ar
    17     7     8   ar
    18     8     9   ar
    19     9    10    1
    20    10    11   ar
    21    11    12   ar
    22    12    13   ar
    23    13    14   ar
    24    14    16    1
    25    16    17    1
    26    16    18    1
    27    14    15   ar
    28     6     1   ar
    29    15    10   ar
    30    29    24    1
    31     9     5   ar
    32    21    22    1
    33    27    30    1
@<TRIPOS>MOLECULE
*****
 30 33 0 0 0
SMALL
GASTEIGER

@<TRIPOS>ATOM
      1 C         140.9447  140.5337  169.0015 C.ar    1  UNL1        0.1638
      2 C         139.7484  139.9278  168.3292 C.ar    1  UNL1        0.0727
      3 C         139.5019  140.1759  166.8706 C.ar    1  UNL1        0.1333
      4 N         140.4516  141.0300  166.0842 N.ar    1  UNL1       -0.2103
      5 C         141.6478  141.6359  166.7563 C.ar    1  UNL1        0.1890
      6 C         141.8944  141.3878  168.2150 C.ar    1  UNL1        0.1740
      7 N         143.1489  142.1127  168.6030 N.ar    1  UNL1       -0.1237
      8 N         143.6777  142.8090  167.3841 N.ar    1  UNL1       -0.0581
      9 N         142.7500  142.5143  166.2428 N.ar    1  UNL1       -0.1928
     10 C         142.8984  143.0108  164.8352 C.ar    1  UNL1        0.0873
     11 C         144.1976  142.8273  164.1083 C.ar    1  UNL1        0.0193
     12 C         144.3461  143.3238  162.7006 C.ar    1  UNL1        0.0028
     13 C         143.1955  144.0039  162.0199 C.ar    1  UNL1        0.0146
     14 C         141.8962  144.1874  162.7469 C.ar    1  UNL1        0.0494
     15 C         141.7477  143.6909  164.1545 C.ar    1  UNL1        0.0338
     16 N         140.7456  144.8675  162.0662 N.pl3   1  UNL1       -0.3040
     17 C         139.5108  145.2124  162.8449 C.3     1  UNL1        0.1122
     18 C         140.8297  145.2028  160.6065 C.3     1  UNL1        0.1122
     19 C         141.0618  141.4097  171.4446 C.3     1  UNL1        0.2525
     20 O         141.1912  140.2855  170.4601 O.3     1  UNL1       -0.4696
     21 N         138.3056  139.5700  166.1984 N.pl3   1  UNL1       -0.3180
     22 H         137.4600  140.0722  166.1520 H       1  UNL1        0.1482
     23 C         138.3977  138.1990  165.5969 C.3     1  UNL1        0.0882
     24 C         139.2293  137.9730  164.3691 C.3     1  UNL1        0.0223
     25 C         140.6497  137.5088  164.5004 C.3     1  UNL1        0.0188
     26 C         141.4812  137.2828  163.2726 C.3     1  UNL1        0.0686
     27 N         140.8926  137.5210  161.9137 N.3     1  UNL1       -0.2975
     28 C         139.4723  137.9852  161.7825 C.3     1  UNL1        0.0686
     29 C         138.6407  138.2112  163.0102 C.3     1  UNL1        0.0188
     30 H         140.9628  136.6403  161.4039 H       1  UNL1        0.1232
@<TRIPOS>BOND
     1    19    20    1
     2    20     1    1
     3     1     2   ar
     4     2     3   ar
     5     3    21    1
     6    21    23    1
     7    23    24    1
     8    24    25    1
     9    25    26    1
    10    26    27    1
    11    27    28    1
    12    28    29    1
    13     3     4   ar
    14     4     5   ar
    15     5     6   ar
    16     6     7   ar
    17     7     8   ar
    18     8     9   ar
    19     9    10    1
    20    10    11   ar
    21    11    12   ar
    22    12    13   ar
    23    13    14   ar
    24    14    16    1
    25    16    17    1
    26    16    18    1
    27    14    15   ar
    28     6     1   ar
    29    15    10   ar
    30    29    24    1
    31     9     5   ar
    32    21    22    1
    33    27    30    1
@<TRIPOS>MOLECULE
*****
 30 33 0 0 0
SMALL
GASTEIGER

@<TRIPOS>ATOM
      1 C         141.3205  144.4366  160.7608 C.ar    1  UNL1        0.1638
      2 C         139.8799  144.0188  160.7769 C.ar    1  UNL1        0.0727
      3 C         139.3694  143.1283  161.8705 C.ar    1  UNL1        0.1333
      4 N         140.2995  142.6554  162.9482 N.ar    1  UNL1       -0.2103
      5 C         141.7400  143.0730  162.9321 C.ar    1  UNL1        0.1890
      6 C         142.2506  143.9637  161.8384 C.ar    1  UNL1        0.1740
      7 N         143.7100  144.2086  162.0833 N.ar    1  UNL1       -0.1237
      8 N         144.1015  143.4693  163.3283 N.ar    1  UNL1       -0.0581
      9 N         142.8840  142.7675  163.8530 N.ar    1  UNL1       -0.1928
     10 C         142.8215  141.9106  165.0825 C.ar    1  UNL1        0.0873
     11 C         142.7866  140.4165  164.9544 C.ar    1  UNL1        0.0193
     12 C         142.7241  139.5596  166.1840 C.ar    1  UNL1        0.0028
     13 C         142.6965  140.1968  167.5416 C.ar    1  UNL1        0.0146
     14 C         142.7314  141.6910  167.6697 C.ar    1  UNL1        0.0494
     15 C         142.7939  142.5479  166.4402 C.ar    1  UNL1        0.0338
     16 N         142.7038  142.3281  169.0273 N.pl3   1  UNL1       -0.3040
     17 C         143.9458  142.3567  169.8679 C.3     1  UNL1        0.1122
     18 C         141.4340  142.9367  169.5444 C.3     1  UNL1        0.1122
     19 C         141.0472  145.4802  158.3972 C.3     1  UNL1        0.2525
     20 O         141.8309  145.3272  159.6670 O.3     1  UNL1       -0.4696
     21 N         137.9288  142.7105  161.8867 N.pl3   1  UNL1       -0.3180
     22 H         137.3278  142.9873  161.1577 H       1  UNL1        0.1482
     23 C         137.4040  141.8711  163.0135 C.3     1  UNL1        0.0882
     24 C         137.8595  140.4500  163.1654 C.3     1  UNL1        0.0223
     25 C         138.3034  139.9439  164.5059 C.3     1  UNL1        0.0188
     26 C         138.7589  138.5228  164.6576 C.3     1  UNL1        0.0686
     27 N         138.7706  137.6079  163.4691 N.3     1  UNL1       -0.2975
     28 C         138.3267  138.1140  162.1287 C.3     1  UNL1        0.0686
     29 C         137.8711  139.5351  161.9768 C.3     1  UNL1        0.0188
     30 H         138.1681  136.8178  163.6998 H       1  UNL1        0.1232
@<TRIPOS>BOND
     1    19    20    1
     2    20     1    1
     3     1     2   ar
     4     2     3   ar
     5     3    21    1
     6    21    23    1
     7    23    24    1
     8    24    25    1
     9    25    26    1
    10    26    27    1
    11    27    28    1
    12    28    29    1
    13     3     4   ar
    14     4     5   ar
    15     5     6   ar
    16     6     7   ar
    17     7     8   ar
    18     8     9   ar
    19     9    10    1
    20    10    11   ar
    21    11    12   ar
    22    12    13   ar
    23    13    14   ar
    24    14    16    1
    25    16    17    1
    26    16    18    1
    27    14    15   ar
    28     6     1   ar
    29    15    10   ar
    30    29    24    1
    31     9     5   ar
    32    21    22    1
    33    27    30    1
@<TRIPOS>MOLECULE
*****
 30 33 0 0 0
SMALL
GASTEIGER

@<TRIPOS>ATOM
      1 C         139.2019  143.2508  161.1086 C.ar    1  UNL1        0.1638
      2 C         138.3825  142.0574  160.7155 C.ar    1  UNL1        0.0727
      3 C         138.0652  140.9986  161.7294 C.ar    1  UNL1        0.1333
      4 N         138.5672  141.1331  163.1365 N.ar    1  UNL1       -0.2103
      5 C         139.3866  142.3264  163.5296 C.ar    1  UNL1        0.1890
      6 C         139.7040  143.3853  162.5157 C.ar    1  UNL1        0.1740
      7 N         140.5277  144.4416  163.1908 N.ar    1  UNL1       -0.1237
      8 N         140.7194  144.0355  164.6220 N.ar    1  UNL1       -0.0581
      9 N         140.0142  142.7283  164.8314 N.ar    1  UNL1       -0.1928
     10 C         139.9482  141.9582  166.1169 C.ar    1  UNL1        0.0873
     11 C         139.4543  140.5418  166.1181 C.ar    1  UNL1        0.0193
     12 C         139.3883  139.7716  167.4037 C.ar    1  UNL1        0.0028
     13 C         139.8161  140.4178  168.6879 C.ar    1  UNL1        0.0146
     14 C         140.3100  141.8343  168.6866 C.ar    1  UNL1        0.0494
     15 C         140.3760  142.6044  167.4012 C.ar    1  UNL1        0.0338
     16 N         140.7378  142.4804  169.9709 N.pl3   1  UNL1       -0.3040
     17 C         141.2410  141.6362  171.1041 C.3     1  UNL1        0.1122
     18 C         140.6623  143.9709  170.1220 C.3     1  UNL1        0.1122
     19 C         140.9294  144.4923  159.6171 C.3     1  UNL1        0.2525
     20 O         139.5192  144.3097  160.0946 O.3     1  UNL1       -0.4696
     21 N         137.2458  139.8052  161.3363 N.pl3   1  UNL1       -0.3180
     22 H         136.4121  139.9267  160.8269 H       1  UNL1        0.1482
     23 C         137.6966  138.4269  161.7195 C.3     1  UNL1        0.0882
     24 C         139.1587  138.1346  161.8837 C.3     1  UNL1        0.0223
     25 C         140.1018  138.3596  160.7391 C.3     1  UNL1        0.0188
     26 C         141.5638  138.0673  160.9035 C.3     1  UNL1        0.0686
     27 N         142.0827  137.5500  162.2122 N.3     1  UNL1       -0.2975
     28 C         141.1397  137.3250  163.3568 C.3     1  UNL1        0.0686
     29 C         139.6777  137.6173  163.1925 C.3     1  UNL1        0.0188
     30 H         142.7839  138.2167  162.5352 H       1  UNL1        0.1232
@<TRIPOS>BOND
     1    19    20    1
     2    20     1    1
     3     1     2   ar
     4     2     3   ar
     5     3    21    1
     6    21    23    1
     7    23    24    1
     8    24    25    1
     9    25    26    1
    10    26    27    1
    11    27    28    1
    12    28    29    1
    13     3     4   ar
    14     4     5   ar
    15     5     6   ar
    16     6     7   ar
    17     7     8   ar
    18     8     9   ar
    19     9    10    1
    20    10    11   ar
    21    11    12   ar
    22    12    13   ar
    23    13    14   ar
    24    14    16    1
    25    16    17    1
    26    16    18    1
    27    14    15   ar
    28     6     1   ar
    29    15    10   ar
    30    29    24    1
    31     9     5   ar
    32    21    22    1
    33    27    30    1
@<TRIPOS>MOLECULE
*****
 30 33 0 0 0
SMALL
GASTEIGER

@<TRIPOS>ATOM
      1 C         140.3137  140.3252  168.9238 C.ar    1  UNL1        0.1638
      2 C         141.5535  141.0773  168.5397 C.ar    1  UNL1        0.0727
      3 C         141.8910  141.2775  167.0921 C.ar    1  UNL1        0.1333
      4 N         140.9890  140.7256  166.0283 N.ar    1  UNL1       -0.2103
      5 C         139.7493  139.9735  166.4123 C.ar    1  UNL1        0.1890
      6 C         139.4116  139.7733  167.8600 C.ar    1  UNL1        0.1740
      7 N         138.1313  138.9954  167.9342 N.ar    1  UNL1       -0.1237
      8 N         137.6776  138.7148  166.5322 N.ar    1  UNL1       -0.0581
      9 N         138.6775  139.3193  165.5916 N.ar    1  UNL1       -0.1928
     10 C         138.6164  139.2770  164.0935 C.ar    1  UNL1        0.0873
     11 C         138.6900  137.9614  163.3767 C.ar    1  UNL1        0.0193
     12 C         138.6289  137.9191  161.8785 C.ar    1  UNL1        0.0028
     13 C         138.4943  139.1923  161.0972 C.ar    1  UNL1        0.0146
     14 C         138.4207  140.5080  161.8140 C.ar    1  UNL1        0.0494
     15 C         138.4818  140.5504  163.3121 C.ar    1  UNL1        0.0338
     16 N         138.2861  141.7813  161.0325 N.pl3   1  UNL1       -0.3040
     17 C         138.4602  141.7690  159.5427 C.3     1  UNL1        0.1122
     18 C         137.9773  143.0669  161.7410 C.3     1  UNL1        0.1122
     19 C         140.7516  140.8520  171.4299 C.3     1  UNL1        0.2525
     20 O         139.9762  140.1250  170.3716 O.3     1  UNL1       -0.4696
     21 N         143.1308  142.0296  166.7080 N.pl3   1  UNL1       -0.3180
     22 H         143.5201  142.6868  167.3291 H       1  UNL1        0.1482
     23 C         143.7773  141.7804  165.3777 C.3     1  UNL1        0.0882
     24 C         143.6201  142.7781  164.2687 C.3     1  UNL1        0.0223
     25 C         142.6978  143.9490  164.4384 C.3     1  UNL1        0.0188
     26 C         142.5407  144.9467  163.3294 C.3     1  UNL1        0.0686
     27 N         143.3057  144.7736  162.0509 N.3     1  UNL1       -0.2975
     28 C         144.2279  143.6029  161.8812 C.3     1  UNL1        0.0686
     29 C         144.3851  142.6051  162.9901 C.3     1  UNL1        0.0188
     30 H         143.8713  145.6139  161.9301 H       1  UNL1        0.1232
@<TRIPOS>BOND
     1    19    20    1
     2    20     1    1
     3     1     2   ar
     4     2     3   ar
     5     3    21    1
     6    21    23    1
     7    23    24    1
     8    24    25    1
     9    25    26    1
    10    26    27    1
    11    27    28    1
    12    28    29    1
    13     3     4   ar
    14     4     5   ar
    15     5     6   ar
    16     6     7   ar
    17     7     8   ar
    18     8     9   ar
    19     9    10    1
    20    10    11   ar
    21    11    12   ar
    22    12    13   ar
    23    13    14   ar
    24    14    16    1
    25    16    17    1
    26    16    18    1
    27    14    15   ar
    28     6     1   ar
    29    15    10   ar
    30    29    24    1
    31     9     5   ar
    32    21    22    1
    33    27    30    1
@<TRIPOS>MOLECULE
*****
 30 33 0 0 0
SMALL
GASTEIGER

@<TRIPOS>ATOM
      1 C         140.8862  145.3340  159.6786 C.ar    1  UNL1        0.1638
      2 C         140.0767  145.7754  160.8619 C.ar    1  UNL1        0.0727
      3 C         140.3370  145.1790  162.2132 C.ar    1  UNL1        0.1333
      4 N         141.4068  144.1411  162.3816 N.ar    1  UNL1       -0.2103
      5 C         142.2163  143.6997  161.1985 C.ar    1  UNL1        0.1890
      6 C         141.9560  144.2962  159.8470 C.ar    1  UNL1        0.1740
      7 N         142.9075  143.6682  158.8721 N.ar    1  UNL1       -0.1237
      8 N         143.7558  142.6837  159.6211 N.ar    1  UNL1       -0.0581
      9 N         143.3286  142.7031  161.0588 N.ar    1  UNL1       -0.1928
     10 C         143.9115  141.8719  162.1631 C.ar    1  UNL1        0.0873
     11 C         145.2585  142.2134  162.7278 C.ar    1  UNL1        0.0193
     12 C         145.8415  141.3822  163.8321 C.ar    1  UNL1        0.0028
     13 C         145.0774  140.2096  164.3716 C.ar    1  UNL1        0.0146
     14 C         143.7303  139.8682  163.8068 C.ar    1  UNL1        0.0494
     15 C         143.1474  140.6993  162.7026 C.ar    1  UNL1        0.0338
     16 N         142.9663  138.6955  164.3463 N.pl3   1  UNL1       -0.3040
     17 C         141.9858  137.9723  163.4713 C.3     1  UNL1        0.1122
     18 C         143.1828  138.2461  165.7610 C.3     1  UNL1        0.1122
     19 C         140.0135  145.0937  157.2433 C.3     1  UNL1        0.2525
     20 O         140.6259  145.9305  158.3271 O.3     1  UNL1       -0.4696
     21 N         139.5275  145.6204  163.3965 N.pl3   1  UNL1       -0.3180
     22 H         139.0800  146.4973  163.3873 H       1  UNL1        0.1482
     23 C         139.3998  144.7257  164.5936 C.3     1  UNL1        0.0882
     24 C         138.8464  143.3401  164.4387 C.3     1  UNL1        0.0223
     25 C         137.7690  143.0711  163.4303 C.3     1  UNL1        0.0188
     26 C         137.2157  141.6855  163.2755 C.3     1  UNL1        0.0686
     27 N         137.7397  140.5690  164.1290 N.3     1  UNL1       -0.2975
     28 C         138.8171  140.8379  165.1374 C.3     1  UNL1        0.0686
     29 C         139.3704  142.2235  165.2923 C.3     1  UNL1        0.0188
     30 H         138.1018  139.8578  163.4938 H       1  UNL1        0.1232
@<TRIPOS>BOND
     1    19    20    1
     2    20     1    1
     3     1     2   ar
     4     2     3   ar
     5     3    21    1
     6    21    23    1
     7    23    24    1
     8    24    25    1
     9    25    26    1
    10    26    27    1
    11    27    28    1
    12    28    29    1
    13     3     4   ar
    14     4     5   ar
    15     5     6   ar
    16     6     7   ar
    17     7     8   ar
    18     8     9   ar
    19     9    10    1
    20    10    11   ar
    21    11    12   ar
    22    12    13   ar
    23    13    14   ar
    24    14    16    1
    25    16    17    1
    26    16    18    1
    27    14    15   ar
    28     6     1   ar
    29    15    10   ar
    30    29    24    1
    31     9     5   ar
    32    21    22    1
    33    27    30    1
@<TRIPOS>MOLECULE
*****
 30 33 0 0 0
SMALL
GASTEIGER

@<TRIPOS>ATOM
      1 C         141.2875  140.8419  168.7885 C.ar    1  UNL1        0.1638
      2 C         140.0498  140.1548  168.2923 C.ar    1  UNL1        0.0727
      3 C         139.6640  140.2565  166.8464 C.ar    1  UNL1        0.1333
      4 N         140.5158  141.0452  165.8966 N.ar    1  UNL1       -0.2103
      5 C         141.7534  141.7323  166.3926 C.ar    1  UNL1        0.1890
      6 C         142.1393  141.6307  167.8386 C.ar    1  UNL1        0.1740
      7 N         143.4058  142.4096  168.0363 N.ar    1  UNL1       -0.1237
      8 N         143.8027  142.9927  166.7125 N.ar    1  UNL1       -0.0581
      9 N         142.7815  142.5741  165.6966 N.ar    1  UNL1       -0.1928
     10 C         142.7874  142.9342  164.2405 C.ar    1  UNL1        0.0873
     11 C         142.3027  144.2835  163.7996 C.ar    1  UNL1        0.0193
     12 C         142.3085  144.6436  162.3434 C.ar    1  UNL1        0.0028
     13 C         142.7990  143.6544  161.3283 C.ar    1  UNL1        0.0146
     14 C         143.2837  142.3050  161.7692 C.ar    1  UNL1        0.0494
     15 C         143.2779  141.9449  163.2253 C.ar    1  UNL1        0.0338
     16 N         143.7743  141.3158  160.7539 N.pl3   1  UNL1       -0.3040
     17 C         144.0290  141.7538  159.3420 C.3     1  UNL1        0.1122
     18 C         144.0100  139.8884  161.1505 C.3     1  UNL1        0.1122
     19 C         140.6681  141.0535  171.3027 C.3     1  UNL1        0.2525
     20 O         141.6733  140.7402  170.2345 O.3     1  UNL1       -0.4696
     21 N         138.4263  139.5693  166.3503 N.pl3   1  UNL1       -0.3180
     22 H         137.5532  140.0195  166.4165 H       1  UNL1        0.1482
     23 C         138.5190  138.1964  165.7532 C.3     1  UNL1        0.0882
     24 C         139.2948  137.9796  164.4879 C.3     1  UNL1        0.0223
     25 C         138.6390  138.2060  163.1579 C.3     1  UNL1        0.0188
     26 C         139.4150  137.9892  161.8926 C.3     1  UNL1        0.0686
     27 N         140.8465  137.5461  161.9573 N.3     1  UNL1       -0.2975
     28 C         141.5022  137.3197  163.2872 C.3     1  UNL1        0.0686
     29 C         140.7264  137.5365  164.5525 C.3     1  UNL1        0.0188
     30 H         141.3967  138.2566  161.4748 H       1  UNL1        0.1232
@<TRIPOS>BOND
     1    19    20    1
     2    20     1    1
     3     1     2   ar
     4     2     3   ar
     5     3    21    1
     6    21    23    1
     7    23    24    1
     8    24    25    1
     9    25    26    1
    10    26    27    1
    11    27    28    1
    12    28    29    1
    13     3     4   ar
    14     4     5   ar
    15     5     6   ar
    16     6     7   ar
    17     7     8   ar
    18     8     9   ar
    19     9    10    1
    20    10    11   ar
    21    11    12   ar
    22    12    13   ar
    23    13    14   ar
    24    14    16    1
    25    16    17    1
    26    16    18    1
    27    14    15   ar
    28     6     1   ar
    29    15    10   ar
    30    29    24    1
    31     9     5   ar
    32    21    22    1
    33    27    30    1
