@<TRIPOS>MOLECULE
*****
 32 34 0 0 0
SMALL
GASTEIGER

@<TRIPOS>ATOM
      1 N         140.9128  141.6055  165.9837 N.3     1  UNL1       -0.2689
      2 C         142.0536  141.2582  166.8938 C.3     1  UNL1        0.0735
      3 C         142.7266  139.9228  166.7769 C.3     1  UNL1        0.0332
      4 C         142.2589  138.9346  165.7500 C.3     1  UNL1        0.1000
      5 C         141.1182  139.2817  164.8399 C.3     1  UNL1        0.0332
      6 C         140.4452  140.6172  164.9568 C.3     1  UNL1        0.0735
      7 C         143.3713  138.1495  166.3793 C.1     1  UNL1        0.0729
      8 N         144.4837  137.3644  167.0087 N.1     1  UNL1       -0.1959
      9 C         140.2399  142.9409  166.1006 C.3     1  UNL1        0.0991
     10 C         139.5613  145.4479  162.4258 C.ar    1  UNL1        0.1387
     11 C         138.4021  144.7756  163.0996 C.ar    1  UNL1        0.0366
     12 C         138.6282  143.9399  164.3245 C.ar    1  UNL1        0.0002
     13 C         140.0137  143.7766  164.8757 C.ar    1  UNL1       -0.0059
     14 C         141.1729  144.4489  164.2019 C.ar    1  UNL1        0.0002
     15 C         140.9468  145.2846  162.9770 C.ar    1  UNL1        0.0366
     16 C         140.0971  145.9913  159.9424 C.3     1  UNL1        0.2525
     17 O         139.3352  146.2836  161.2009 O.3     1  UNL1       -0.4714
     18 C         142.1775  137.6737  164.9416 C.3     1  UNL1        0.1037
     19 N         141.6619  137.7174  163.5336 N.am    1  UNL1       -0.2998
     20 C         142.5691  138.1375  162.4153 C.2     1  UNL1        0.2461
     21 O         143.9919  138.5138  162.7050 O.2     1  UNL1       -0.2701
     22 H         140.7280  137.4704  163.3435 H       1  UNL1        0.1498
     23 C         142.0534  138.1812  161.0075 C.ar    1  UNL1        0.0594
     24 C         142.9242  137.7236  159.8751 C.ar    1  UNL1        0.0416
     25 C         142.4085  137.7672  158.4673 C.ar    1  UNL1        0.1419
     26 C         141.0218  138.2687  158.1918 C.ar    1  UNL1        0.0738
     27 C         140.1510  138.7263  159.3241 C.ar    1  UNL1        0.1419
     28 C         140.6667  138.6826  160.7320 C.ar    1  UNL1        0.0416
     29 O         143.2792  137.3096  157.3349 O.3     1  UNL1       -0.4713
     30 C         143.0533  135.9639  156.7116 C.3     1  UNL1        0.2525
     31 O         138.7644  139.2277  159.0485 O.3     1  UNL1       -0.4713
     32 C         137.9547  139.8395  160.1532 C.3     1  UNL1        0.2525
@<TRIPOS>BOND
     1    16    17    1
     2    17    10    1
     3    10    11   ar
     4    11    12   ar
     5    12    13   ar
     6    13     9    1
     7     9     1    1
     8     1     2    1
     9     2     3    1
    10     3     4    1
    11     4     7    1
    12     7     8    3
    13     4    18    1
    14    18    19    1
    15    19    20   am
    16    20    21    2
    17    20    23    1
    18    23    24   ar
    19    24    25   ar
    20    25    29    1
    21    29    30    1
    22    25    26   ar
    23    26    27   ar
    24    27    31    1
    25    31    32    1
    26    27    28   ar
    27     4     5    1
    28     5     6    1
    29    13    14   ar
    30    14    15   ar
    31    15    10   ar
    32     6     1    1
    33    28    23   ar
    34    19    22    1
@<TRIPOS>MOLECULE
*****
 32 34 0 0 0
SMALL
GASTEIGER

@<TRIPOS>ATOM
      1 N         143.5515  143.1370  159.7457 N.3     1  UNL1       -0.2689
      2 C         142.3895  143.8850  159.1622 C.3     1  UNL1        0.0735
      3 C         141.4610  144.6472  160.0604 C.3     1  UNL1        0.0332
      4 C         141.6943  144.6615  161.5420 C.3     1  UNL1        0.1000
      5 C         142.8563  143.9135  162.1255 C.3     1  UNL1        0.0332
      6 C         143.7849  143.1513  161.2273 C.3     1  UNL1        0.0735
      7 C         140.4652  145.5176  161.4636 C.1     1  UNL1        0.0729
      8 N         139.2361  146.3739  161.3853 N.1     1  UNL1       -0.1959
      9 C         144.4801  142.3748  158.8475 C.3     1  UNL1        0.0991
     10 C         143.1330  138.5100  156.9770 C.ar    1  UNL1        0.1387
     11 C         143.8556  139.5317  156.1500 C.ar    1  UNL1        0.0366
     12 C         144.3046  140.8199  156.7735 C.ar    1  UNL1        0.0002
     13 C         144.0311  141.0865  158.2240 C.ar    1  UNL1       -0.0059
     14 C         143.3085  140.0648  159.0510 C.ar    1  UNL1        0.0002
     15 C         142.8595  138.7766  158.4275 C.ar    1  UNL1        0.0366
     16 C         143.6978  136.2036  155.9227 C.3     1  UNL1        0.2525
     17 O         142.6840  137.2217  156.3535 O.3     1  UNL1       -0.4714
     18 C         141.5008  144.9731  162.9964 C.3     1  UNL1        0.1037
     19 N         141.3571  143.8582  163.9897 N.am    1  UNL1       -0.2998
     20 C         140.1309  143.7732  164.8496 C.2     1  UNL1        0.2461
     21 O         139.0485  144.8031  164.7162 O.2     1  UNL1       -0.2701
     22 H         142.0675  143.1823  164.0773 H       1  UNL1        0.1498
     23 C         139.9872  142.6584  165.8428 C.ar    1  UNL1        0.0594
     24 C         140.4683  142.8422  167.2516 C.ar    1  UNL1        0.0416
     25 C         140.3246  141.7274  168.2447 C.ar    1  UNL1        0.1419
     26 C         139.6998  140.4286  167.8290 C.ar    1  UNL1        0.0738
     27 C         139.2188  140.2447  166.4202 C.ar    1  UNL1        0.1419
     28 C         139.3624  141.3596  165.4270 C.ar    1  UNL1        0.0416
     29 O         140.8056  141.9113  169.6535 O.3     1  UNL1       -0.4713
     30 C         139.9762  142.6864  170.6341 C.3     1  UNL1        0.2525
     31 O         138.5940  138.9458  166.0046 O.3     1  UNL1       -0.4713
     32 C         137.6422  138.2426  166.9262 C.3     1  UNL1        0.2525
@<TRIPOS>BOND
     1    16    17    1
     2    17    10    1
     3    10    11   ar
     4    11    12   ar
     5    12    13   ar
     6    13     9    1
     7     9     1    1
     8     1     2    1
     9     2     3    1
    10     3     4    1
    11     4     7    1
    12     7     8    3
    13     4    18    1
    14    18    19    1
    15    19    20   am
    16    20    21    2
    17    20    23    1
    18    23    24   ar
    19    24    25   ar
    20    25    29    1
    21    29    30    1
    22    25    26   ar
    23    26    27   ar
    24    27    31    1
    25    31    32    1
    26    27    28   ar
    27     4     5    1
    28     5     6    1
    29    13    14   ar
    30    14    15   ar
    31    15    10   ar
    32     6     1    1
    33    28    23   ar
    34    19    22    1
@<TRIPOS>MOLECULE
*****
 32 34 0 0 0
SMALL
GASTEIGER

@<TRIPOS>ATOM
      1 N         138.4995  139.2092  165.6900 N.3     1  UNL1       -0.2689
      2 C         138.9689  138.0850  164.8147 C.3     1  UNL1        0.0735
      3 C         138.9732  138.2471  163.3235 C.3     1  UNL1        0.0332
      4 C         138.5080  139.5333  162.7076 C.3     1  UNL1        0.1000
      5 C         138.0385  140.6573  163.5828 C.3     1  UNL1        0.0332
      6 C         138.0343  140.4953  165.0740 C.3     1  UNL1        0.0735
      7 C         138.8581  138.7629  161.4690 C.1     1  UNL1        0.0729
      8 N         139.2083  137.9926  160.2305 N.1     1  UNL1       -0.1959
      9 C         138.4953  139.0471  167.1812 C.3     1  UNL1        0.0991
     10 C         140.7908  141.9295  169.7643 C.ar    1  UNL1        0.1387
     11 C         141.1974  141.7142  168.3366 C.ar    1  UNL1        0.0366
     12 C         140.4322  140.7534  167.4756 C.ar    1  UNL1        0.0002
     13 C         139.2605  140.0079  168.0422 C.ar    1  UNL1       -0.0059
     14 C         138.8538  140.2232  169.4699 C.ar    1  UNL1        0.0002
     15 C         139.6190  141.1840  170.3309 C.ar    1  UNL1        0.0366
     16 C         143.0396  143.0319  170.4554 C.3     1  UNL1        0.2525
     17 O         141.5560  142.8903  170.6253 O.3     1  UNL1       -0.4714
     18 C         138.1644  140.5518  161.6615 C.3     1  UNL1        0.1037
     19 N         139.2399  141.1130  160.7792 N.am    1  UNL1       -0.2998
     20 C         139.3837  142.5981  160.6239 C.2     1  UNL1        0.2461
     21 O         138.4520  143.5218  161.3509 O.2     1  UNL1       -0.2701
     22 H         139.8514  140.5067  160.3020 H       1  UNL1        0.1498
     23 C         140.4592  143.1592  159.7416 C.ar    1  UNL1        0.0594
     24 C         141.8024  142.4943  159.6810 C.ar    1  UNL1        0.0416
     25 C         142.8779  143.0554  158.7987 C.ar    1  UNL1        0.1419
     26 C         142.6101  144.2815  157.9770 C.ar    1  UNL1        0.0738
     27 C         141.2669  144.9463  158.0377 C.ar    1  UNL1        0.1419
     28 C         140.1914  144.3852  158.9199 C.ar    1  UNL1        0.0416
     29 O         144.2211  142.3906  158.7381 O.3     1  UNL1       -0.4713
     30 C         145.0142  142.4170  157.4650 C.3     1  UNL1        0.2525
     31 O         140.9992  146.1724  157.2159 O.3     1  UNL1       -0.4713
     32 C         139.6541  146.3720  156.5829 C.3     1  UNL1        0.2525
@<TRIPOS>BOND
     1    16    17    1
     2    17    10    1
     3    10    11   ar
     4    11    12   ar
     5    12    13   ar
     6    13     9    1
     7     9     1    1
     8     1     2    1
     9     2     3    1
    10     3     4    1
    11     4     7    1
    12     7     8    3
    13     4    18    1
    14    18    19    1
    15    19    20   am
    16    20    21    2
    17    20    23    1
    18    23    24   ar
    19    24    25   ar
    20    25    29    1
    21    29    30    1
    22    25    26   ar
    23    26    27   ar
    24    27    31    1
    25    31    32    1
    26    27    28   ar
    27     4     5    1
    28     5     6    1
    29    13    14   ar
    30    14    15   ar
    31    15    10   ar
    32     6     1    1
    33    28    23   ar
    34    19    22    1
@<TRIPOS>MOLECULE
*****
 32 34 0 0 0
SMALL
GASTEIGER

@<TRIPOS>ATOM
      1 N         143.6128  143.1958  159.8372 N.3     1  UNL1       -0.2689
      2 C         142.4156  143.9051  159.2770 C.3     1  UNL1        0.0735
      3 C         141.4601  144.6052  160.1972 C.3     1  UNL1        0.0332
      4 C         141.7018  144.5961  161.6776 C.3     1  UNL1        0.1000
      5 C         142.8989  143.8868  162.2378 C.3     1  UNL1        0.0332
      6 C         143.8544  143.1866  161.3176 C.3     1  UNL1        0.0735
      7 C         140.4359  145.3990  161.6253 C.1     1  UNL1        0.0729
      8 N         139.1700  146.2020  161.5730 N.1     1  UNL1       -0.1959
      9 C         144.5683  142.4956  158.9170 C.3     1  UNL1        0.0991
     10 C         143.3089  138.7229  156.8121 C.ar    1  UNL1        0.1387
     11 C         142.8751  138.9735  158.2260 C.ar    1  UNL1        0.0366
     12 C         143.2949  140.2311  158.9276 C.ar    1  UNL1        0.0002
     13 C         144.1485  141.2380  158.2154 C.ar    1  UNL1       -0.0059
     14 C         144.5823  140.9875  156.8015 C.ar    1  UNL1        0.0002
     15 C         144.1625  139.7299  156.0999 C.ar    1  UNL1        0.0366
     16 C         143.9228  136.4729  155.6674 C.3     1  UNL1        0.2525
     17 O         142.8891  137.4653  156.1105 O.3     1  UNL1       -0.4714
     18 C         141.5038  144.8658  163.1398 C.3     1  UNL1        0.1037
     19 N         141.3390  143.7232  164.0977 N.am    1  UNL1       -0.2998
     20 C         140.1453  143.6710  165.0046 C.2     1  UNL1        0.2461
     21 O         139.1164  144.7613  164.9535 O.2     1  UNL1       -0.2701
     22 H         142.0143  143.0076  164.1312 H       1  UNL1        0.1498
     23 C         139.9806  142.5284  165.9624 C.ar    1  UNL1        0.0594
     24 C         139.2520  141.2894  165.5337 C.ar    1  UNL1        0.0416
     25 C         139.0873  140.1468  166.4915 C.ar    1  UNL1        0.1419
     26 C         139.6513  140.2434  167.8781 C.ar    1  UNL1        0.0738
     27 C         140.3799  141.4824  168.3068 C.ar    1  UNL1        0.1419
     28 C         140.5446  142.6250  167.3490 C.ar    1  UNL1        0.0416
     29 O         138.3587  138.9078  166.0628 O.3     1  UNL1       -0.4713
     30 C         138.9564  138.0087  165.0214 C.3     1  UNL1        0.2525
     31 O         140.9439  141.5789  169.6934 O.3     1  UNL1       -0.4713
     32 C         140.6046  140.5347  170.7154 C.3     1  UNL1        0.2525
@<TRIPOS>BOND
     1    16    17    1
     2    17    10    1
     3    10    11   ar
     4    11    12   ar
     5    12    13   ar
     6    13     9    1
     7     9     1    1
     8     1     2    1
     9     2     3    1
    10     3     4    1
    11     4     7    1
    12     7     8    3
    13     4    18    1
    14    18    19    1
    15    19    20   am
    16    20    21    2
    17    20    23    1
    18    23    24   ar
    19    24    25   ar
    20    25    29    1
    21    29    30    1
    22    25    26   ar
    23    26    27   ar
    24    27    31    1
    25    31    32    1
    26    27    28   ar
    27     4     5    1
    28     5     6    1
    29    13    14   ar
    30    14    15   ar
    31    15    10   ar
    32     6     1    1
    33    28    23   ar
    34    19    22    1
@<TRIPOS>MOLECULE
*****
 32 34 0 0 0
SMALL
GASTEIGER

@<TRIPOS>ATOM
      1 N         138.3335  140.7310  159.6523 N.3     1  UNL1       -0.2689
      2 C         138.4981  142.1998  159.9084 C.3     1  UNL1        0.0735
      3 C         138.3303  142.7425  161.2966 C.3     1  UNL1        0.0332
      4 C         137.9979  141.8165  162.4289 C.3     1  UNL1        0.1000
      5 C         137.8333  140.3477  162.1728 C.3     1  UNL1        0.0332
      6 C         138.0011  139.8049  160.7845 C.3     1  UNL1        0.0735
      7 C         138.0538  143.1210  163.1671 C.1     1  UNL1        0.0729
      8 N         138.1097  144.4256  163.9053 N.1     1  UNL1       -0.1959
      9 C         138.5013  140.1883  158.2641 C.3     1  UNL1        0.0991
     10 C         141.9392  137.4417  157.3222 C.ar    1  UNL1        0.1387
     11 C         140.6613  137.3379  156.5437 C.ar    1  UNL1        0.0366
     12 C         139.5153  138.2534  156.8577 C.ar    1  UNL1        0.0002
     13 C         139.6473  139.2727  157.9501 C.ar    1  UNL1       -0.0059
     14 C         140.9252  139.3766  158.7286 C.ar    1  UNL1        0.0002
     15 C         142.0712  138.4610  158.4147 C.ar    1  UNL1        0.0366
     16 C         143.8873  136.7304  155.7574 C.3     1  UNL1        0.2525
     17 O         143.0852  136.5262  157.0083 O.3     1  UNL1       -0.4714
     18 C         137.6850  141.3435  163.8174 C.3     1  UNL1        0.1037
     19 N         138.7826  141.2175  164.8321 N.am    1  UNL1       -0.2998
     20 C         138.7667  140.0868  165.8177 C.2     1  UNL1        0.2461
     21 O         137.6533  139.0821  165.7886 O.2     1  UNL1       -0.2701
     22 H         139.5134  141.8770  164.8512 H       1  UNL1        0.1498
     23 C         139.8643  139.9610  166.8323 C.ar    1  UNL1        0.0594
     24 C         139.6069  140.3240  168.2647 C.ar    1  UNL1        0.0416
     25 C         140.7045  140.1982  169.2793 C.ar    1  UNL1        0.1419
     26 C         142.0596  139.7092  168.8614 C.ar    1  UNL1        0.0738
     27 C         142.3170  139.3461  167.4290 C.ar    1  UNL1        0.1419
     28 C         141.2194  139.4719  166.4144 C.ar    1  UNL1        0.0416
     29 O         140.4471  140.5612  170.7117 O.3     1  UNL1       -0.4713
     30 C         140.7860  141.9351  171.2097 C.3     1  UNL1        0.2525
     31 O         143.6722  138.8571  167.0111 O.3     1  UNL1       -0.4713
     32 C         143.9645  138.6052  165.5616 C.3     1  UNL1        0.2525
@<TRIPOS>BOND
     1    16    17    1
     2    17    10    1
     3    10    11   ar
     4    11    12   ar
     5    12    13   ar
     6    13     9    1
     7     9     1    1
     8     1     2    1
     9     2     3    1
    10     3     4    1
    11     4     7    1
    12     7     8    3
    13     4    18    1
    14    18    19    1
    15    19    20   am
    16    20    21    2
    17    20    23    1
    18    23    24   ar
    19    24    25   ar
    20    25    29    1
    21    29    30    1
    22    25    26   ar
    23    26    27   ar
    24    27    31    1
    25    31    32    1
    26    27    28   ar
    27     4     5    1
    28     5     6    1
    29    13    14   ar
    30    14    15   ar
    31    15    10   ar
    32     6     1    1
    33    28    23   ar
    34    19    22    1
@<TRIPOS>MOLECULE
*****
 32 34 0 0 0
SMALL
GASTEIGER

@<TRIPOS>ATOM
      1 N         142.4121  134.6782  155.0617 N.3     1  UNL1       -0.2689
      2 C         143.5992  135.3685  155.6655 C.3     1  UNL1        0.0735
      3 C         143.4249  136.6803  156.3717 C.3     1  UNL1        0.0332
      4 C         142.0636  137.3018  156.4742 C.3     1  UNL1        0.1000
      5 C         140.8766  136.6116  155.8704 C.3     1  UNL1        0.0332
      6 C         141.0508  135.2998  155.1641 C.3     1  UNL1        0.0735
      7 C         142.8758  138.3322  157.2012 C.1     1  UNL1        0.0729
      8 N         143.6880  139.3626  157.9282 N.1     1  UNL1       -0.1959
      9 C         142.5864  133.3664  154.3554 C.3     1  UNL1        0.0991
     10 C         144.1485  129.7927  156.6001 C.ar    1  UNL1        0.1387
     11 C         144.4771  129.9681  155.1471 C.ar    1  UNL1        0.0366
     12 C         143.9564  131.1593  154.3989 C.ar    1  UNL1        0.0002
     13 C         143.1071  132.1752  155.1036 C.ar    1  UNL1       -0.0059
     14 C         142.7785  131.9998  156.5566 C.ar    1  UNL1        0.0002
     15 C         143.2992  130.8085  157.3048 C.ar    1  UNL1        0.0366
     16 C         144.9200  128.6937  158.8242 C.3     1  UNL1        0.2525
     17 O         144.6692  128.6015  157.3483 O.3     1  UNL1       -0.4714
     18 C         140.9844  138.2812  156.8291 C.3     1  UNL1        0.1037
     19 N         140.5873  138.4728  158.2630 N.am    1  UNL1       -0.2998
     20 C         139.2867  139.1407  158.5982 C.2     1  UNL1        0.2461
     21 O         138.3832  139.6171  157.4997 O.2     1  UNL1       -0.2701
     22 H         141.1804  138.1602  158.9839 H       1  UNL1        0.1498
     23 C         138.8898  139.3323  160.0320 C.ar    1  UNL1        0.0594
     24 C         139.1278  138.2371  161.0289 C.ar    1  UNL1        0.0416
     25 C         138.7309  138.4286  162.4627 C.ar    1  UNL1        0.1419
     26 C         138.0959  139.7155  162.8995 C.ar    1  UNL1        0.0738
     27 C         137.8578  140.8107  161.9026 C.ar    1  UNL1        0.1419
     28 C         138.2548  140.6191  160.4688 C.ar    1  UNL1        0.0416
     29 O         138.9689  137.3335  163.4596 O.3     1  UNL1       -0.4713
     30 C         138.9963  137.6473  164.9262 C.3     1  UNL1        0.2525
     31 O         137.2228  142.0975  162.3396 O.3     1  UNL1       -0.4713
     32 C         138.0816  143.2738  162.6981 C.3     1  UNL1        0.2525
@<TRIPOS>BOND
     1    16    17    1
     2    17    10    1
     3    10    11   ar
     4    11    12   ar
     5    12    13   ar
     6    13     9    1
     7     9     1    1
     8     1     2    1
     9     2     3    1
    10     3     4    1
    11     4     7    1
    12     7     8    3
    13     4    18    1
    14    18    19    1
    15    19    20   am
    16    20    21    2
    17    20    23    1
    18    23    24   ar
    19    24    25   ar
    20    25    29    1
    21    29    30    1
    22    25    26   ar
    23    26    27   ar
    24    27    31    1
    25    31    32    1
    26    27    28   ar
    27     4     5    1
    28     5     6    1
    29    13    14   ar
    30    14    15   ar
    31    15    10   ar
    32     6     1    1
    33    28    23   ar
    34    19    22    1
@<TRIPOS>MOLECULE
*****
 32 34 0 0 0
SMALL
GASTEIGER

@<TRIPOS>ATOM
      1 N         142.6859  134.0657  155.0650 N.3     1  UNL1       -0.2689
      2 C         141.2493  134.4969  155.0459 C.3     1  UNL1        0.0735
      3 C         140.8419  135.7782  155.7108 C.3     1  UNL1        0.0332
      4 C         141.8711  136.6284  156.3949 C.3     1  UNL1        0.1000
      5 C         143.3077  136.1972  156.4140 C.3     1  UNL1        0.0332
      6 C         143.7151  134.9158  155.7490 C.3     1  UNL1        0.0735
      7 C         140.6440  137.4545  156.6433 C.1     1  UNL1        0.0729
      8 N         139.4169  138.2805  156.8916 N.1     1  UNL1       -0.1959
      9 C         143.0932  132.7843  154.4000 C.3     1  UNL1        0.0991
     10 C         144.3976  129.2718  156.8921 C.ar    1  UNL1        0.1387
     11 C         143.4921  130.3133  157.4797 C.ar    1  UNL1        0.0366
     12 C         143.0573  131.4841  156.6490 C.ar    1  UNL1        0.0002
     13 C         143.5280  131.6135  155.2307 C.ar    1  UNL1       -0.0059
     14 C         144.4335  130.5720  154.6431 C.ar    1  UNL1        0.0002
     15 C         144.8683  129.4011  155.4738 C.ar    1  UNL1        0.0366
     16 C         145.0874  128.2761  159.1905 C.3     1  UNL1        0.2525
     17 O         144.8324  128.1009  157.7228 O.3     1  UNL1       -0.4714
     18 C         142.4742  137.7654  157.1652 C.3     1  UNL1        0.1037
     19 N         142.3997  137.7794  158.6633 N.am    1  UNL1       -0.2998
     20 C         143.2595  138.7254  159.4482 C.2     1  UNL1        0.2461
     21 O         144.1936  139.6574  158.7349 O.2     1  UNL1       -0.2701
     22 H         141.7866  137.1677  159.1315 H       1  UNL1        0.1498
     23 C         143.1851  138.7393  160.9463 C.ar    1  UNL1        0.0594
     24 C         144.1118  139.6159  161.7352 C.ar    1  UNL1        0.0416
     25 C         144.0374  139.6298  163.2333 C.ar    1  UNL1        0.1419
     26 C         143.0360  138.7669  163.9424 C.ar    1  UNL1        0.0738
     27 C         142.1093  137.8902  163.1534 C.ar    1  UNL1        0.1419
     28 C         142.1837  137.8763  161.6554 C.ar    1  UNL1        0.0416
     29 O         144.9641  140.5065  164.0223 O.3     1  UNL1       -0.4713
     30 C         145.6921  141.6296  163.3450 C.3     1  UNL1        0.2525
     31 O         141.1079  137.0273  163.8626 O.3     1  UNL1       -0.4713
     32 C         140.1064  137.6484  164.7905 C.3     1  UNL1        0.2525
@<TRIPOS>BOND
     1    16    17    1
     2    17    10    1
     3    10    11   ar
     4    11    12   ar
     5    12    13   ar
     6    13     9    1
     7     9     1    1
     8     1     2    1
     9     2     3    1
    10     3     4    1
    11     4     7    1
    12     7     8    3
    13     4    18    1
    14    18    19    1
    15    19    20   am
    16    20    21    2
    17    20    23    1
    18    23    24   ar
    19    24    25   ar
    20    25    29    1
    21    29    30    1
    22    25    26   ar
    23    26    27   ar
    24    27    31    1
    25    31    32    1
    26    27    28   ar
    27     4     5    1
    28     5     6    1
    29    13    14   ar
    30    14    15   ar
    31    15    10   ar
    32     6     1    1
    33    28    23   ar
    34    19    22    1
@<TRIPOS>MOLECULE
*****
 32 34 0 0 0
SMALL
GASTEIGER

@<TRIPOS>ATOM
      1 N         142.7757  138.6735  158.1712 N.3     1  UNL1       -0.2689
      2 C         143.4002  139.9949  158.5089 C.3     1  UNL1        0.0735
      3 C         143.9168  140.2482  159.8941 C.3     1  UNL1        0.0332
      4 C         143.8089  139.1801  160.9417 C.3     1  UNL1        0.1000
      5 C         143.1845  137.8587  160.6041 C.3     1  UNL1        0.0332
      6 C         142.6678  137.6054  159.2188 C.3     1  UNL1        0.0735
      7 C         144.4764  140.2609  161.7394 C.1     1  UNL1        0.0729
      8 N         145.1440  141.3417  162.5370 N.1     1  UNL1       -0.1959
      9 C         142.2591  138.4203  156.7859 C.3     1  UNL1        0.0991
     10 C         142.5710  134.3081  154.9851 C.ar    1  UNL1        0.1387
     11 C         143.8142  135.0591  155.3596 C.ar    1  UNL1        0.0366
     12 C         143.7103  136.4298  155.9599 C.ar    1  UNL1        0.0002
     13 C         142.3631  137.0495  156.1856 C.ar    1  UNL1       -0.0059
     14 C         141.1198  136.2985  155.8111 C.ar    1  UNL1        0.0002
     15 C         141.2238  134.9278  155.2108 C.ar    1  UNL1        0.0366
     16 C         142.0415  131.7662  155.0754 C.3     1  UNL1        0.2525
     17 O         142.6749  132.9374  154.3848 O.3     1  UNL1       -0.4714
     18 C         143.9328  138.4874  162.2664 C.3     1  UNL1        0.1037
     19 N         142.9583  138.7910  163.3656 N.am    1  UNL1       -0.2998
     20 C         143.4483  138.9828  164.7704 C.2     1  UNL1        0.2461
     21 O         144.9125  138.8710  165.0758 O.2     1  UNL1       -0.2701
     22 H         141.9973  138.8643  163.1652 H       1  UNL1        0.1498
     23 C         142.4738  139.2864  165.8696 C.ar    1  UNL1        0.0594
     24 C         142.9713  139.5698  167.2560 C.ar    1  UNL1        0.0416
     25 C         141.9968  139.8734  168.3551 C.ar    1  UNL1        0.1419
     26 C         140.5246  139.8936  168.0678 C.ar    1  UNL1        0.0738
     27 C         140.0272  139.6102  166.6814 C.ar    1  UNL1        0.1419
     28 C         141.0017  139.3066  165.5822 C.ar    1  UNL1        0.0416
     29 O         142.4942  140.1567  169.7415 O.3     1  UNL1       -0.4713
     30 C         141.8286  141.2104  170.5764 C.3     1  UNL1        0.2525
     31 O         138.5550  139.6305  166.3941 O.3     1  UNL1       -0.4713
     32 C         137.6687  138.5524  166.9438 C.3     1  UNL1        0.2525
@<TRIPOS>BOND
     1    16    17    1
     2    17    10    1
     3    10    11   ar
     4    11    12   ar
     5    12    13   ar
     6    13     9    1
     7     9     1    1
     8     1     2    1
     9     2     3    1
    10     3     4    1
    11     4     7    1
    12     7     8    3
    13     4    18    1
    14    18    19    1
    15    19    20   am
    16    20    21    2
    17    20    23    1
    18    23    24   ar
    19    24    25   ar
    20    25    29    1
    21    29    30    1
    22    25    26   ar
    23    26    27   ar
    24    27    31    1
    25    31    32    1
    26    27    28   ar
    27     4     5    1
    28     5     6    1
    29    13    14   ar
    30    14    15   ar
    31    15    10   ar
    32     6     1    1
    33    28    23   ar
    34    19    22    1
@<TRIPOS>MOLECULE
*****
 32 34 0 0 0
SMALL
GASTEIGER

@<TRIPOS>ATOM
      1 N         142.3582  134.6736  154.9354 N.3     1  UNL1       -0.2689
      2 C         143.4602  135.1452  155.8373 C.3     1  UNL1        0.0735
      3 C         143.2459  136.3358  156.7240 C.3     1  UNL1        0.0332
      4 C         141.9297  137.0550  156.7089 C.3     1  UNL1        0.1000
      5 C         140.8277  136.5835  155.8071 C.3     1  UNL1        0.0332
      6 C         141.0420  135.3928  154.9204 C.3     1  UNL1        0.0735
      7 C         142.6630  137.8752  157.7285 C.1     1  UNL1        0.0729
      8 N         143.3964  138.6954  158.7480 N.1     1  UNL1       -0.1959
      9 C         142.5725  133.4829  154.0487 C.3     1  UNL1        0.0991
     10 C         141.1550  129.4178  155.3585 C.ar    1  UNL1        0.1387
     11 C         142.5402  129.8768  155.7054 C.ar    1  UNL1        0.0366
     12 C         143.0127  131.2318  155.2688 C.ar    1  UNL1        0.0002
     13 C         142.1000  132.1279  154.4853 C.ar    1  UNL1       -0.0059
     14 C         140.7148  131.6689  154.1384 C.ar    1  UNL1        0.0002
     15 C         140.2422  130.3139  154.5750 C.ar    1  UNL1        0.0366
     16 C         139.3119  127.5876  155.4136 C.3     1  UNL1        0.2525
     17 O         140.6824  128.0628  155.7951 O.3     1  UNL1       -0.4714
     18 C         140.8681  138.0590  157.0479 C.3     1  UNL1        0.1037
     19 N         140.4659  138.2716  158.4774 N.am    1  UNL1       -0.2998
     20 C         139.2471  139.0841  158.8006 C.2     1  UNL1        0.2461
     21 O         138.4305  139.6839  157.6946 O.2     1  UNL1       -0.2701
     22 H         141.0018  137.8780  159.2033 H       1  UNL1        0.1498
     23 C         138.8449  139.2967  160.2300 C.ar    1  UNL1        0.0594
     24 C         138.1828  140.5785  160.6402 C.ar    1  UNL1        0.0416
     25 C         137.7806  140.7911  162.0695 C.ar    1  UNL1        0.1419
     26 C         138.0408  139.7217  163.0888 C.ar    1  UNL1        0.0738
     27 C         138.7030  138.4398  162.6785 C.ar    1  UNL1        0.1419
     28 C         139.1051  138.2273  161.2492 C.ar    1  UNL1        0.0416
     29 O         137.1185  142.0730  162.4798 O.3     1  UNL1       -0.4713
     30 C         137.9494  143.2267  162.9580 C.3     1  UNL1        0.2525
     31 O         138.9631  137.3704  163.6978 O.3     1  UNL1       -0.4713
     32 C         138.8958  137.6962  165.1605 C.3     1  UNL1        0.2525
@<TRIPOS>BOND
     1    16    17    1
     2    17    10    1
     3    10    11   ar
     4    11    12   ar
     5    12    13   ar
     6    13     9    1
     7     9     1    1
     8     1     2    1
     9     2     3    1
    10     3     4    1
    11     4     7    1
    12     7     8    3
    13     4    18    1
    14    18    19    1
    15    19    20   am
    16    20    21    2
    17    20    23    1
    18    23    24   ar
    19    24    25   ar
    20    25    29    1
    21    29    30    1
    22    25    26   ar
    23    26    27   ar
    24    27    31    1
    25    31    32    1
    26    27    28   ar
    27     4     5    1
    28     5     6    1
    29    13    14   ar
    30    14    15   ar
    31    15    10   ar
    32     6     1    1
    33    28    23   ar
    34    19    22    1
