@<TRIPOS>MOLECULE
*****
 33 36 0 0 0
SMALL
GASTEIGER

@<TRIPOS>ATOM
      1 C         141.2365  138.7234  161.1622 C.ar    1  UNL1       -0.0223
      2 C         140.4929  137.8411  162.1206 C.ar    1  UNL1       -0.0030
      3 C         140.4713  138.1731  163.5833 C.ar    1  UNL1        0.0143
      4 C         141.1933  139.3873  164.0875 C.ar    1  UNL1        0.0502
      5 C         141.9369  140.2696  163.1291 C.ar    1  UNL1        0.0089
      6 C         141.9585  139.9376  161.6665 C.ar    1  UNL1       -0.0034
      7 C         140.0505  137.4215  154.5178 C.3     1  UNL1        0.0948
      8 C         141.3230  137.3956  155.3116 C.2     1  UNL1        0.2261
      9 O         142.6170  137.0378  154.6428 O.2     1  UNL1       -0.2749
     10 N         141.3014  137.7276  156.7743 N.am    1  UNL1       -0.2795
     11 C         140.0073  138.0854  157.4431 C.3     1  UNL1        0.0937
     12 C         139.9857  138.4174  158.9057 C.3     1  UNL1        0.0259
     13 C         141.2581  138.3915  159.6996 C.3     1  UNL1        0.0257
     14 C         142.5522  138.0336  159.0307 C.3     1  UNL1        0.0259
     15 C         142.5738  137.7017  157.5681 C.3     1  UNL1        0.0937
     16 C         142.6589  141.4839  163.6333 C.2     1  UNL1       -0.0253
     17 C         144.1014  141.3866  164.0333 C.2     1  UNL1       -0.0303
     18 C         144.8234  142.6008  164.5375 C.3     1  UNL1        0.0257
     19 C         144.1030  143.9124  164.6418 C.3     1  UNL1        0.0050
     20 C         142.6606  144.0097  164.2418 C.3     1  UNL1        0.0050
     21 C         141.9386  142.7954  163.7376 C.3     1  UNL1        0.0261
     22 N         141.1717  139.7192  165.5502 N.am    1  UNL1       -0.2779
     23 C         142.2354  139.1769  166.4581 C.2     1  UNL1        0.2837
     24 O         143.3207  138.3026  165.9034 O.2     1  UNL1       -0.2665
     25 H         140.4593  140.2931  165.9142 H       1  UNL1        0.1553
     26 C         142.2137  139.5089  167.9208 C.ar    1  UNL1        0.1958
     27 N         143.0559  138.8668  168.9831 N.ar    1  UNL1       -0.2205
     28 C         142.7088  139.5023  170.2968 C.ar    1  UNL1        0.1282
     29 C         141.6522  140.5371  170.0463 C.ar    1  UNL1        0.1469
     30 N         141.3462  140.5412  168.5779 N.ar    1  UNL1       -0.3257
     31 H         140.6910  141.1198  168.1249 H       1  UNL1        0.1682
     32 C         141.0136  141.4139  171.0824 C.1     1  UNL1        0.1194
     33 N         140.3750  142.2907  172.1185 N.1     1  UNL1       -0.1893
@<TRIPOS>BOND
     1     7     8    1
     2     8     9    2
     3     8    10   am
     4    10    11    1
     5    11    12    1
     6    12    13    1
     7    13     1    1
     8     1     2   ar
     9     2     3   ar
    10     3     4   ar
    11     4    22    1
    12    22    23   am
    13    23    24    2
    14    23    26    1
    15    26    27   ar
    16    27    28   ar
    17    28    29   ar
    18    29    32    1
    19    32    33    3
    20    29    30   ar
    21     4     5   ar
    22     5    16    1
    23    16    17    2
    24    17    18    1
    25    18    19    1
    26    19    20    1
    27    20    21    1
    28     5     6   ar
    29    13    14    1
    30    14    15    1
    31    15    10    1
    32     6     1   ar
    33    30    26   ar
    34    21    16    1
    35    22    25    1
    36    30    31    1
@<TRIPOS>MOLECULE
*****
 33 36 0 0 0
SMALL
GASTEIGER

@<TRIPOS>ATOM
      1 C         141.1233  138.6912  161.1022 C.ar    1  UNL1       -0.0223
      2 C         141.6835  137.6458  162.0206 C.ar    1  UNL1       -0.0030
      3 C         141.6384  137.8504  163.5059 C.ar    1  UNL1        0.0143
      4 C         141.0331  139.1002  164.0728 C.ar    1  UNL1        0.0502
      5 C         140.4729  140.1455  163.1544 C.ar    1  UNL1        0.0089
      6 C         140.5180  139.9410  161.6691 C.ar    1  UNL1       -0.0034
      7 C         140.0554  138.0297  154.3441 C.3     1  UNL1        0.0948
      8 C         141.3037  137.8731  155.1610 C.2     1  UNL1        0.2261
      9 O         142.5970  137.5120  154.4925 O.2     1  UNL1       -0.2749
     10 N         141.2586  138.0776  156.6463 N.am    1  UNL1       -0.2795
     11 C         139.9652  138.4387  157.3147 C.3     1  UNL1        0.0937
     12 C         139.9201  138.6432  158.8000 C.3     1  UNL1        0.0259
     13 C         141.1684  138.4866  159.6169 C.3     1  UNL1        0.0257
     14 C         142.4617  138.1255  158.9485 C.3     1  UNL1        0.0259
     15 C         142.5068  137.9210  157.4632 C.3     1  UNL1        0.0937
     16 C         139.8675  141.3954  163.7214 C.2     1  UNL1       -0.0253
     17 C         138.3824  141.4910  163.9093 C.2     1  UNL1       -0.0303
     18 C         137.7770  142.7408  164.4762 C.3     1  UNL1        0.0257
     19 C         138.6568  143.8952  164.8552 C.3     1  UNL1        0.0050
     20 C         140.1419  143.7996  164.6673 C.3     1  UNL1        0.0050
     21 C         140.7473  142.5497  164.1004 C.3     1  UNL1        0.0261
     22 N         140.9880  139.3047  165.5581 N.am    1  UNL1       -0.2779
     23 C         142.2593  139.5192  166.3246 C.2     1  UNL1        0.2837
     24 O         143.5759  139.5292  165.6058 O.2     1  UNL1       -0.2665
     25 H         140.1239  139.2982  166.0299 H       1  UNL1        0.1553
     26 C         142.2142  139.7238  167.8099 C.ar    1  UNL1        0.1958
     27 N         142.9752  138.9328  168.8323 N.ar    1  UNL1       -0.2205
     28 C         142.6315  139.4754  170.1879 C.ar    1  UNL1        0.1282
     29 C         141.6581  140.6016  170.0033 C.ar    1  UNL1        0.1469
     30 N         141.4002  140.7552  168.5336 N.ar    1  UNL1       -0.3257
     31 H         140.8017  141.4167  168.1171 H       1  UNL1        0.1682
     32 C         141.0495  141.4291  171.0964 C.1     1  UNL1        0.1194
     33 N         140.4408  142.2565  172.1895 N.1     1  UNL1       -0.1893
@<TRIPOS>BOND
     1     7     8    1
     2     8     9    2
     3     8    10   am
     4    10    11    1
     5    11    12    1
     6    12    13    1
     7    13     1    1
     8     1     2   ar
     9     2     3   ar
    10     3     4   ar
    11     4    22    1
    12    22    23   am
    13    23    24    2
    14    23    26    1
    15    26    27   ar
    16    27    28   ar
    17    28    29   ar
    18    29    32    1
    19    32    33    3
    20    29    30   ar
    21     4     5   ar
    22     5    16    1
    23    16    17    2
    24    17    18    1
    25    18    19    1
    26    19    20    1
    27    20    21    1
    28     5     6   ar
    29    13    14    1
    30    14    15    1
    31    15    10    1
    32     6     1   ar
    33    30    26   ar
    34    21    16    1
    35    22    25    1
    36    30    31    1
@<TRIPOS>MOLECULE
*****
 33 36 0 0 0
SMALL
GASTEIGER

@<TRIPOS>ATOM
      1 C         141.1036  138.7570  161.0464 C.ar    1  UNL1       -0.0223
      2 C         141.6442  137.8244  162.0894 C.ar    1  UNL1       -0.0030
      3 C         141.5901  138.2076  163.5387 C.ar    1  UNL1        0.0143
      4 C         140.9954  139.5233  163.9449 C.ar    1  UNL1        0.0502
      5 C         140.4547  140.4559  162.9018 C.ar    1  UNL1        0.0089
      6 C         140.5089  140.0728  161.4526 C.ar    1  UNL1       -0.0034
      7 C         140.0671  137.2305  154.4248 C.3     1  UNL1        0.0948
      8 C         141.3201  137.2244  155.2495 C.2     1  UNL1        0.2261
      9 O         142.6271  136.8352  154.6249 O.2     1  UNL1       -0.2749
     10 N         141.2659  137.6076  156.6987 N.am    1  UNL1       -0.2795
     11 C         139.9589  137.9968  157.3233 C.3     1  UNL1        0.0937
     12 C         139.9048  138.3799  158.7725 C.3     1  UNL1        0.0259
     13 C         141.1577  138.3739  159.5972 C.3     1  UNL1        0.0257
     14 C         142.4647  137.9846  158.9726 C.3     1  UNL1        0.0259
     15 C         142.5189  137.6015  157.5234 C.3     1  UNL1        0.0937
     16 C         139.8600  141.7717  163.3080 C.2     1  UNL1       -0.0253
     17 C         138.3968  141.8677  163.6242 C.2     1  UNL1       -0.0303
     18 C         137.8020  143.1835  164.0303 C.3     1  UNL1        0.0257
     19 C         138.6704  144.4033  164.1204 C.3     1  UNL1        0.0050
     20 C         140.1335  144.3073  163.8042 C.3     1  UNL1        0.0050
     21 C         140.7283  142.9915  163.3980 C.3     1  UNL1        0.0261
     22 N         140.9412  139.9065  165.3941 N.am    1  UNL1       -0.2779
     23 C         139.7462  139.5392  166.2228 C.2     1  UNL1        0.2837
     24 O         138.6051  138.7888  165.6024 O.2     1  UNL1       -0.2665
     25 H         141.6901  140.3990  165.8013 H       1  UNL1        0.1553
     26 C         139.6920  139.9224  167.6721 C.ar    1  UNL1        0.1958
     27 N         138.5850  139.5951  168.6299 N.ar    1  UNL1       -0.2205
     28 C         138.9442  140.1705  169.9677 C.ar    1  UNL1        0.1282
     29 C         140.2733  140.8535  169.8368 C.ar    1  UNL1        0.1469
     30 N         140.7355  140.7001  168.4180 N.ar    1  UNL1       -0.3257
     31 H         141.5762  141.0487  168.0424 H       1  UNL1        0.1682
     32 C         141.0108  141.5649  170.9322 C.1     1  UNL1        0.1194
     33 N         141.7482  142.2763  172.0277 N.1     1  UNL1       -0.1893
@<TRIPOS>BOND
     1     7     8    1
     2     8     9    2
     3     8    10   am
     4    10    11    1
     5    11    12    1
     6    12    13    1
     7    13     1    1
     8     1     2   ar
     9     2     3   ar
    10     3     4   ar
    11     4    22    1
    12    22    23   am
    13    23    24    2
    14    23    26    1
    15    26    27   ar
    16    27    28   ar
    17    28    29   ar
    18    29    32    1
    19    32    33    3
    20    29    30   ar
    21     4     5   ar
    22     5    16    1
    23    16    17    2
    24    17    18    1
    25    18    19    1
    26    19    20    1
    27    20    21    1
    28     5     6   ar
    29    13    14    1
    30    14    15    1
    31    15    10    1
    32     6     1   ar
    33    30    26   ar
    34    21    16    1
    35    22    25    1
    36    30    31    1
@<TRIPOS>MOLECULE
*****
 33 36 0 0 0
SMALL
GASTEIGER

@<TRIPOS>ATOM
      1 C         141.1169  144.3229  160.4669 C.ar    1  UNL1       -0.0223
      2 C         139.9939  144.7859  161.3469 C.ar    1  UNL1       -0.0030
      3 C         139.9348  144.3480  162.7803 C.ar    1  UNL1        0.0143
      4 C         140.9987  143.4470  163.3337 C.ar    1  UNL1        0.0502
      5 C         142.1217  142.9840  162.4537 C.ar    1  UNL1        0.0089
      6 C         142.1808  143.4219  161.0203 C.ar    1  UNL1       -0.0034
      7 C         140.3509  147.0591  154.2078 C.3     1  UNL1        0.0948
      8 C         141.3531  146.0745  154.7331 C.2     1  UNL1        0.2261
      9 O         142.4145  145.5279  153.8250 O.2     1  UNL1       -0.2749
     10 N         141.2941  145.6366  156.1666 N.am    1  UNL1       -0.2795
     11 C         140.2327  146.1832  157.0746 C.3     1  UNL1        0.0937
     12 C         140.1736  145.7453  158.5081 C.3     1  UNL1        0.0259
     13 C         141.1759  144.7608  159.0334 C.3     1  UNL1        0.0257
     14 C         142.2373  144.2141  158.1253 C.3     1  UNL1        0.0259
     15 C         142.2963  144.6520  156.6919 C.3     1  UNL1        0.0937
     16 C         143.1857  142.0830  163.0072 C.2     1  UNL1       -0.0253
     17 C         144.4974  142.6576  163.4536 C.2     1  UNL1       -0.0303
     18 C         145.5614  141.7567  164.0070 C.3     1  UNL1        0.0257
     19 C         145.3137  140.2811  164.1140 C.3     1  UNL1        0.0050
     20 C         144.0020  139.7065  163.6675 C.3     1  UNL1        0.0050
     21 C         142.9380  140.6075  163.1141 C.3     1  UNL1        0.0261
     22 N         140.9396  143.0091  164.7672 N.am    1  UNL1       -0.2779
     23 C         140.0700  141.8528  165.1629 C.2     1  UNL1        0.2837
     24 O         139.2594  141.1343  164.1252 O.2     1  UNL1       -0.2665
     25 H         141.4716  143.4807  165.4483 H       1  UNL1        0.1553
     26 C         140.0110  141.4149  166.5964 C.ar    1  UNL1        0.1958
     27 N         139.5603  140.0721  167.0902 N.ar    1  UNL1       -0.2205
     28 C         139.6630  140.0702  168.5867 C.ar    1  UNL1        0.1282
     29 C         140.1771  141.4118  169.0177 C.ar    1  UNL1        0.1469
     30 N         140.3922  142.2429  167.7877 N.ar    1  UNL1       -0.3257
     31 H         140.7251  143.1692  167.7660 H       1  UNL1        0.1682
     32 C         140.4315  141.8461  170.4308 C.1     1  UNL1        0.1194
     33 N         140.6859  142.2805  171.8438 N.1     1  UNL1       -0.1893
@<TRIPOS>BOND
     1     7     8    1
     2     8     9    2
     3     8    10   am
     4    10    11    1
     5    11    12    1
     6    12    13    1
     7    13     1    1
     8     1     2   ar
     9     2     3   ar
    10     3     4   ar
    11     4    22    1
    12    22    23   am
    13    23    24    2
    14    23    26    1
    15    26    27   ar
    16    27    28   ar
    17    28    29   ar
    18    29    32    1
    19    32    33    3
    20    29    30   ar
    21     4     5   ar
    22     5    16    1
    23    16    17    2
    24    17    18    1
    25    18    19    1
    26    19    20    1
    27    20    21    1
    28     5     6   ar
    29    13    14    1
    30    14    15    1
    31    15    10    1
    32     6     1   ar
    33    30    26   ar
    34    21    16    1
    35    22    25    1
    36    30    31    1
@<TRIPOS>MOLECULE
*****
 33 36 0 0 0
SMALL
GASTEIGER

@<TRIPOS>ATOM
      1 C         140.7561  143.3360  164.2952 C.ar    1  UNL1       -0.0223
      2 C         140.6528  144.7909  163.9453 C.ar    1  UNL1       -0.0030
      3 C         140.2458  145.2025  162.5615 C.ar    1  UNL1        0.0143
      4 C         139.9420  144.1591  161.5276 C.ar    1  UNL1        0.0502
      5 C         140.0453  142.7042  161.8774 C.ar    1  UNL1        0.0089
      6 C         140.4523  142.2926  163.2613 C.ar    1  UNL1       -0.0034
      7 C         141.4167  141.8262  170.9686 C.3     1  UNL1        0.0948
      8 C         142.3841  141.6897  169.8305 C.2     1  UNL1        0.2261
      9 O         143.7586  141.1416  170.0761 O.2     1  UNL1       -0.2749
     10 N         141.9771  142.1013  168.4466 N.am    1  UNL1       -0.2795
     11 C         140.6027  142.6494  168.2010 C.3     1  UNL1        0.0937
     12 C         140.1957  143.0610  166.8171 C.3     1  UNL1        0.0259
     13 C         141.1631  142.9244  165.6790 C.3     1  UNL1        0.0257
     14 C         142.5375  142.3763  165.9247 C.3     1  UNL1        0.0259
     15 C         142.9445  141.9647  167.3085 C.3     1  UNL1        0.0937
     16 C         139.7416  141.6607  160.8435 C.2     1  UNL1       -0.0253
     17 C         138.3441  141.1363  160.6952 C.2     1  UNL1       -0.0303
     18 C         138.0403  140.0929  159.6613 C.3     1  UNL1        0.0257
     19 C         139.1340  139.5739  158.7756 C.3     1  UNL1        0.0050
     20 C         140.5315  140.0983  158.9238 C.3     1  UNL1        0.0050
     21 C         140.8353  141.1418  159.9578 C.3     1  UNL1        0.0261
     22 N         139.5350  144.5707  160.1437 N.am    1  UNL1       -0.2779
     23 C         140.5806  144.9299  159.1301 C.2     1  UNL1        0.2837
     24 O         142.0334  144.8776  159.5002 O.2     1  UNL1       -0.2665
     25 H         138.5816  144.6050  159.9008 H       1  UNL1        0.1553
     26 C         140.1736  145.3415  157.7463 C.ar    1  UNL1        0.1958
     27 N         139.4308  144.4934  156.7568 N.ar    1  UNL1       -0.2205
     28 C         139.2361  145.3012  155.5079 C.ar    1  UNL1        0.1282
     29 C         139.8585  146.6485  155.7256 C.ar    1  UNL1        0.1469
     30 N         140.4379  146.6735  157.1089 N.ar    1  UNL1       -0.3257
     31 H         140.9090  147.4310  157.5255 H       1  UNL1        0.1682
     32 C         139.8950  147.7734  154.7340 C.1     1  UNL1        0.1194
     33 N         139.9316  148.8983  153.7424 N.1     1  UNL1       -0.1893
@<TRIPOS>BOND
     1     7     8    1
     2     8     9    2
     3     8    10   am
     4    10    11    1
     5    11    12    1
     6    12    13    1
     7    13     1    1
     8     1     2   ar
     9     2     3   ar
    10     3     4   ar
    11     4    22    1
    12    22    23   am
    13    23    24    2
    14    23    26    1
    15    26    27   ar
    16    27    28   ar
    17    28    29   ar
    18    29    32    1
    19    32    33    3
    20    29    30   ar
    21     4     5   ar
    22     5    16    1
    23    16    17    2
    24    17    18    1
    25    18    19    1
    26    19    20    1
    27    20    21    1
    28     5     6   ar
    29    13    14    1
    30    14    15    1
    31    15    10    1
    32     6     1   ar
    33    30    26   ar
    34    21    16    1
    35    22    25    1
    36    30    31    1
@<TRIPOS>MOLECULE
*****
 33 36 0 0 0
SMALL
GASTEIGER

@<TRIPOS>ATOM
      1 C         140.2419  144.4942  158.2440 C.ar    1  UNL1       -0.0223
      2 C         139.2844  143.3433  158.3367 C.ar    1  UNL1       -0.0030
      3 C         139.2433  142.4999  159.5764 C.ar    1  UNL1        0.0143
      4 C         140.1598  142.8072  160.7233 C.ar    1  UNL1        0.0502
      5 C         141.1173  143.9581  160.6306 C.ar    1  UNL1        0.0089
      6 C         141.1583  144.8016  159.3909 C.ar    1  UNL1       -0.0034
      7 C         141.2336  147.4363  152.1112 C.3     1  UNL1        0.0948
      8 C         140.4059  147.8682  153.2852 C.2     1  UNL1        0.2261
      9 O         139.6192  149.1436  153.2195 O.2     1  UNL1       -0.2749
     10 N         140.3649  147.0247  154.5249 N.am    1  UNL1       -0.2795
     11 C         141.1516  145.7493  154.5906 C.3     1  UNL1        0.0937
     12 C         141.1106  144.9058  155.8303 C.3     1  UNL1        0.0259
     13 C         140.2829  145.3377  157.0043 C.3     1  UNL1        0.0257
     14 C         139.4962  146.6132  156.9386 C.3     1  UNL1        0.0259
     15 C         139.5372  147.4567  155.6989 C.3     1  UNL1        0.0937
     16 C         142.0339  144.2655  161.7776 C.2     1  UNL1       -0.0253
     17 C         141.5700  145.1590  162.8896 C.2     1  UNL1       -0.0303
     18 C         142.4864  145.4664  164.0366 C.3     1  UNL1        0.0257
     19 C         143.8669  144.8804  164.0715 C.3     1  UNL1        0.0050
     20 C         144.3307  143.9870  162.9595 C.3     1  UNL1        0.0050
     21 C         143.4142  143.6796  161.8125 C.3     1  UNL1        0.0261
     22 N         140.1188  141.9637  161.9630 N.am    1  UNL1       -0.2779
     23 C         139.1925  142.3255  163.0860 C.2     1  UNL1        0.2837
     24 O         138.3071  143.5307  162.9693 O.2     1  UNL1       -0.2665
     25 H         140.6999  141.1727  162.0396 H       1  UNL1        0.1553
     26 C         139.1515  141.4820  164.3257 C.ar    1  UNL1        0.1958
     27 N         140.1157  141.5527  165.4725 N.ar    1  UNL1       -0.2205
     28 C         139.6992  140.5341  166.4918 C.ar    1  UNL1        0.1282
     29 C         138.4775  139.8338  165.9750 C.ar    1  UNL1        0.1469
     30 N         138.1390  140.4196  164.6362 N.ar    1  UNL1       -0.3257
     31 H         137.3847  140.1536  164.0621 H       1  UNL1        0.1682
     32 C         137.7263  138.7398  166.6741 C.1     1  UNL1        0.1194
     33 N         136.9750  137.6458  167.3731 N.1     1  UNL1       -0.1893
@<TRIPOS>BOND
     1     7     8    1
     2     8     9    2
     3     8    10   am
     4    10    11    1
     5    11    12    1
     6    12    13    1
     7    13     1    1
     8     1     2   ar
     9     2     3   ar
    10     3     4   ar
    11     4    22    1
    12    22    23   am
    13    23    24    2
    14    23    26    1
    15    26    27   ar
    16    27    28   ar
    17    28    29   ar
    18    29    32    1
    19    32    33    3
    20    29    30   ar
    21     4     5   ar
    22     5    16    1
    23    16    17    2
    24    17    18    1
    25    18    19    1
    26    19    20    1
    27    20    21    1
    28     5     6   ar
    29    13    14    1
    30    14    15    1
    31    15    10    1
    32     6     1   ar
    33    30    26   ar
    34    21    16    1
    35    22    25    1
    36    30    31    1
@<TRIPOS>MOLECULE
*****
 33 36 0 0 0
SMALL
GASTEIGER

@<TRIPOS>ATOM
      1 C         141.1007  144.2858  160.4746 C.ar    1  UNL1       -0.0223
      2 C         139.9749  144.7512  161.3498 C.ar    1  UNL1       -0.0030
      3 C         139.9146  144.3219  162.7858 C.ar    1  UNL1        0.0143
      4 C         140.9799  143.4273  163.3466 C.ar    1  UNL1        0.0502
      5 C         142.1057  142.9619  162.4714 C.ar    1  UNL1        0.0089
      6 C         142.1660  143.3911  161.0354 C.ar    1  UNL1       -0.0034
      7 C         142.3757  145.4163  153.8153 C.3     1  UNL1        0.0948
      8 C         141.3421  146.0028  154.7306 C.2     1  UNL1        0.2261
      9 O         140.3690  147.0185  154.2099 O.2     1  UNL1       -0.2749
     10 N         141.2818  145.5736  156.1666 N.am    1  UNL1       -0.2795
     11 C         142.2549  144.5578  156.6873 C.3     1  UNL1        0.0937
     12 C         142.1946  144.1286  158.1233 C.3     1  UNL1        0.0259
     13 C         141.1610  144.7150  159.0386 C.3     1  UNL1        0.0257
     14 C         140.1879  145.7308  158.5179 C.3     1  UNL1        0.0259
     15 C         140.2482  146.1600  157.0819 C.3     1  UNL1        0.0937
     16 C         143.1711  142.0671  163.0321 C.2     1  UNL1       -0.0253
     17 C         142.9261  140.5920  163.1501 C.2     1  UNL1       -0.0303
     18 C         143.9915  139.6973  163.7108 C.3     1  UNL1        0.0257
     19 C         145.3019  140.2777  164.1536 C.3     1  UNL1        0.0050
     20 C         145.5469  141.7529  164.0357 C.3     1  UNL1        0.0050
     21 C         144.4814  142.6476  163.4749 C.3     1  UNL1        0.0261
     22 N         140.9196  142.9980  164.7826 N.am    1  UNL1       -0.2779
     23 C         140.0766  141.8224  165.1791 C.2     1  UNL1        0.2837
     24 O         139.2940  141.0759  164.1397 O.2     1  UNL1       -0.2665
     25 H         141.4332  143.4879  165.4648 H       1  UNL1        0.1553
     26 C         140.0163  141.3931  166.6151 C.ar    1  UNL1        0.1958
     27 N         139.5701  140.0516  167.1164 N.ar    1  UNL1       -0.2205
     28 C         139.6696  140.0593  168.6131 C.ar    1  UNL1        0.1282
     29 C         140.1772  141.4057  169.0369 C.ar    1  UNL1        0.1469
     30 N         140.3915  142.2301  167.8021 N.ar    1  UNL1       -0.3257
     31 H         140.7205  143.1576  167.7754 H       1  UNL1        0.1682
     32 C         140.4267  141.8499  170.4477 C.1     1  UNL1        0.1194
     33 N         140.6762  142.2940  171.8585 N.1     1  UNL1       -0.1893
@<TRIPOS>BOND
     1     7     8    1
     2     8     9    2
     3     8    10   am
     4    10    11    1
     5    11    12    1
     6    12    13    1
     7    13     1    1
     8     1     2   ar
     9     2     3   ar
    10     3     4   ar
    11     4    22    1
    12    22    23   am
    13    23    24    2
    14    23    26    1
    15    26    27   ar
    16    27    28   ar
    17    28    29   ar
    18    29    32    1
    19    32    33    3
    20    29    30   ar
    21     4     5   ar
    22     5    16    1
    23    16    17    2
    24    17    18    1
    25    18    19    1
    26    19    20    1
    27    20    21    1
    28     5     6   ar
    29    13    14    1
    30    14    15    1
    31    15    10    1
    32     6     1   ar
    33    30    26   ar
    34    21    16    1
    35    22    25    1
    36    30    31    1
@<TRIPOS>MOLECULE
*****
 33 36 0 0 0
SMALL
GASTEIGER

@<TRIPOS>ATOM
      1 C         139.5038  139.5024  160.6322 C.ar    1  UNL1       -0.0223
      2 C         139.8863  138.2771  161.4083 C.ar    1  UNL1       -0.0030
      3 C         140.0799  138.3600  162.8934 C.ar    1  UNL1        0.0143
      4 C         139.8910  139.6683  163.6025 C.ar    1  UNL1        0.0502
      5 C         139.5085  140.8936  162.8265 C.ar    1  UNL1        0.0089
      6 C         139.3149  140.8106  161.3413 C.ar    1  UNL1       -0.0034
      7 C         139.3130  138.0229  153.9222 C.3     1  UNL1        0.0948
      8 C         138.7295  139.1707  154.6917 C.2     1  UNL1        0.2261
      9 O         137.9524  140.2355  153.9760 O.2     1  UNL1       -0.2749
     10 N         138.9231  139.2536  156.1768 N.am    1  UNL1       -0.2795
     11 C         139.7001  138.1888  156.8925 C.3     1  UNL1        0.0937
     12 C         139.8937  138.2717  158.3776 C.3     1  UNL1        0.0259
     13 C         139.3102  139.4195  159.1471 C.3     1  UNL1        0.0257
     14 C         138.5332  140.4843  158.4314 C.3     1  UNL1        0.0259
     15 C         138.3396  140.4014  156.9463 C.3     1  UNL1        0.0937
     16 C         139.3196  142.2019  163.5355 C.2     1  UNL1       -0.0253
     17 C         137.9556  142.6080  164.0094 C.2     1  UNL1       -0.0303
     18 C         137.7666  143.9162  164.7184 C.3     1  UNL1        0.0257
     19 C         138.9418  144.8184  164.9536 C.3     1  UNL1        0.0050
     20 C         140.3058  144.4123  164.4798 C.3     1  UNL1        0.0050
     21 C         140.4947  143.1040  163.7707 C.3     1  UNL1        0.0261
     22 N         140.0846  139.7512  165.0877 N.am    1  UNL1       -0.2779
     23 C         141.4527  139.9921  165.6534 C.2     1  UNL1        0.2837
     24 O         142.6274  140.1501  164.7339 O.2     1  UNL1       -0.2665
     25 H         139.3137  139.6475  165.6911 H       1  UNL1        0.1553
     26 C         141.6463  140.0750  167.1385 C.ar    1  UNL1        0.1958
     27 N         142.6097  139.2596  167.9490 N.ar    1  UNL1       -0.2205
     28 C         142.4693  139.6685  169.3853 C.ar    1  UNL1        0.1282
     29 C         141.4191  140.7368  169.4626 C.ar    1  UNL1        0.1469
     30 N         140.9104  140.9880  168.0740 N.ar    1  UNL1       -0.3257
     31 H         140.2156  141.6380  167.8210 H       1  UNL1        0.1682
     32 C         140.9584  141.4318  170.7095 C.1     1  UNL1        0.1194
     33 N         140.4977  142.1267  171.9563 N.1     1  UNL1       -0.1893
@<TRIPOS>BOND
     1     7     8    1
     2     8     9    2
     3     8    10   am
     4    10    11    1
     5    11    12    1
     6    12    13    1
     7    13     1    1
     8     1     2   ar
     9     2     3   ar
    10     3     4   ar
    11     4    22    1
    12    22    23   am
    13    23    24    2
    14    23    26    1
    15    26    27   ar
    16    27    28   ar
    17    28    29   ar
    18    29    32    1
    19    32    33    3
    20    29    30   ar
    21     4     5   ar
    22     5    16    1
    23    16    17    2
    24    17    18    1
    25    18    19    1
    26    19    20    1
    27    20    21    1
    28     5     6   ar
    29    13    14    1
    30    14    15    1
    31    15    10    1
    32     6     1   ar
    33    30    26   ar
    34    21    16    1
    35    22    25    1
    36    30    31    1
@<TRIPOS>MOLECULE
*****
 33 36 0 0 0
SMALL
GASTEIGER

@<TRIPOS>ATOM
      1 C         139.3533  141.3577  164.4264 C.ar    1  UNL1       -0.0223
      2 C         138.1471  142.0715  163.8922 C.ar    1  UNL1       -0.0030
      3 C         137.9509  142.2076  162.4113 C.ar    1  UNL1        0.0143
      4 C         138.9609  141.6299  161.4647 C.ar    1  UNL1        0.0502
      5 C         140.1671  140.9161  161.9989 C.ar    1  UNL1        0.0089
      6 C         140.3633  140.7800  163.4798 C.ar    1  UNL1       -0.0034
      7 C         140.8494  141.8901  171.1143 C.3     1  UNL1        0.0948
      8 C         140.1382  140.8132  170.3499 C.2     1  UNL1        0.2261
      9 O         139.6232  139.6001  171.0663 O.2     1  UNL1       -0.2749
     10 N         139.9420  140.9493  168.8690 N.am    1  UNL1       -0.2795
     11 C         140.4569  142.1623  168.1526 C.3     1  UNL1        0.0937
     12 C         140.2607  142.2985  166.6717 C.3     1  UNL1        0.0259
     13 C         139.5495  141.2216  165.9073 C.3     1  UNL1        0.0257
     14 C         139.0346  140.0085  166.6237 C.3     1  UNL1        0.0259
     15 C         139.2308  139.8724  168.1046 C.3     1  UNL1        0.0937
     16 C         141.1772  140.3383  161.0523 C.2     1  UNL1       -0.0253
     17 C         142.3153  141.1836  160.5624 C.2     1  UNL1       -0.0303
     18 C         143.3254  140.6060  159.6158 C.3     1  UNL1        0.0257
     19 C         143.1973  139.1829  159.1591 C.3     1  UNL1        0.0050
     20 C         142.0591  138.3376  159.6490 C.3     1  UNL1        0.0050
     21 C         141.0490  138.9153  160.5956 C.3     1  UNL1        0.0261
     22 N         138.7647  141.7660  159.9838 N.am    1  UNL1       -0.2779
     23 C         138.0061  140.7156  159.2281 C.2     1  UNL1        0.2837
     24 O         137.4438  139.5290  159.9532 O.2     1  UNL1       -0.2665
     25 H         139.1338  142.5448  159.5079 H       1  UNL1        0.1553
     26 C         137.8099  140.8517  157.7472 C.ar    1  UNL1        0.1958
     27 N         138.8688  141.2090  156.7467 N.ar    1  UNL1       -0.2205
     28 C         138.2337  141.2326  155.3879 C.ar    1  UNL1        0.1282
     29 C         136.7823  140.8899  155.5488 C.ar    1  UNL1        0.1469
     30 N         136.5203  140.6545  157.0069 N.ar    1  UNL1       -0.3257
     31 H         135.6541  140.4129  157.4076 H       1  UNL1        0.1682
     32 C         135.7704  140.7985  154.4453 C.1     1  UNL1        0.1194
     33 N         134.7585  140.7072  153.3418 N.1     1  UNL1       -0.1893
@<TRIPOS>BOND
     1     7     8    1
     2     8     9    2
     3     8    10   am
     4    10    11    1
     5    11    12    1
     6    12    13    1
     7    13     1    1
     8     1     2   ar
     9     2     3   ar
    10     3     4   ar
    11     4    22    1
    12    22    23   am
    13    23    24    2
    14    23    26    1
    15    26    27   ar
    16    27    28   ar
    17    28    29   ar
    18    29    32    1
    19    32    33    3
    20    29    30   ar
    21     4     5   ar
    22     5    16    1
    23    16    17    2
    24    17    18    1
    25    18    19    1
    26    19    20    1
    27    20    21    1
    28     5     6   ar
    29    13    14    1
    30    14    15    1
    31    15    10    1
    32     6     1   ar
    33    30    26   ar
    34    21    16    1
    35    22    25    1
    36    30    31    1
