@<TRIPOS>MOLECULE
*****
 41 45 0 0 0
SMALL
GASTEIGER

@<TRIPOS>ATOM
      1 C         141.0200  140.7891  162.6849 C.3     1  UNL1        0.0792
      2 C         140.1435  139.2995  164.6247 C.ar    1  UNL1        0.1351
      3 C         139.7903  139.1265  166.0723 C.ar    1  UNL1        0.0366
      4 C         139.9605  140.2704  167.0276 C.ar    1  UNL1        0.0030
      5 C         139.6073  140.0975  168.4751 C.ar    1  UNL1        0.0006
      6 C         139.7775  141.2414  169.4304 C.ar    1  UNL1        0.0067
      7 C         140.3008  142.5581  168.9382 C.ar    1  UNL1        0.0346
      8 BR        140.4710  143.7020  169.8935 Br      1  UNL1       -0.0490
      9 C         140.6540  142.7311  167.4906 C.ar    1  UNL1        0.0067
     10 C         140.4838  141.5872  166.5353 C.ar    1  UNL1        0.0004
     11 C         140.8369  141.7601  165.0878 C.ar    1  UNL1       -0.0009
     12 C         140.6668  140.6162  164.1325 C.ar    1  UNL1        0.0182
     13 C         141.0503  137.1194  163.5406 C.3     1  UNL1        0.2525
     14 O         139.9733  138.1556  163.6694 O.3     1  UNL1       -0.4717
     15 C         140.0336  140.4068  161.6214 C.ar    1  UNL1        0.0245
     16 C         138.6576  141.0042  161.6250 C.ar    1  UNL1        0.0200
     17 C         137.6713  140.6219  160.5616 C.ar    1  UNL1        0.1019
     18 N         138.0609  139.6423  159.4945 N.ar    1  UNL1       -0.2076
     19 C         139.4368  139.0450  159.4909 C.ar    1  UNL1        0.2598
     20 C         140.4231  139.4272  160.5544 C.ar    1  UNL1        0.1879
     21 O         139.8263  138.0654  158.4239 O.3     1  UNL1       -0.4541
     22 C         139.9427  138.5164  156.9980 C.3     1  UNL1        0.2543
     23 O         141.7990  138.8299  160.5508 O.3     1  UNL1       -0.4670
     24 C         142.7662  139.1808  159.4591 C.3     1  UNL1        0.2527
     25 C         142.3594  141.3443  162.3008 C.3     1  UNL1        0.1159
     26 O         143.0317  140.1699  162.9478 O.3     1  UNL1       -0.3820
     27 H         143.3702  140.4305  163.8187 H       1  UNL1        0.2107
     28 C         141.6871  142.5187  161.6538 C.ar    1  UNL1        0.0026
     29 C         140.8895  143.4785  162.4860 C.ar    1  UNL1        0.0011
     30 C         140.2172  144.6530  161.8389 C.ar    1  UNL1        0.0372
     31 C         140.3425  144.8676  160.3597 C.ar    1  UNL1        0.1454
     32 O         139.7957  145.9270  159.4493 O.2     1  UNL1       -0.4504
     33 C         140.2553  145.6219  158.0544 C.ar    1  UNL1        0.1796
     34 C         141.0862  144.3740  158.1027 C.ar    1  UNL1        0.0437
     35 C         141.1401  143.9078  159.5274 C.ar    1  UNL1        0.0375
     36 C         141.8124  142.7334  160.1745 C.ar    1  UNL1        0.0011
     37 C         143.6989  141.8995  161.9167 C.3     1  UNL1        0.0491
     38 C         144.6578  142.3477  162.9796 C.3     1  UNL1        0.0750
     39 N         144.2926  143.4839  163.8883 N.3     1  UNL1       -0.2702
     40 C         144.2220  143.2658  165.3707 C.3     1  UNL1        0.0897
     41 C         143.9981  144.8382  163.3146 C.3     1  UNL1        0.0897
@<TRIPOS>BOND
     1    13    14    1
     2    14     2    1
     3     2     3   ar
     4     3     4   ar
     5     4     5   ar
     6     5     6   ar
     7     6     7   ar
     8     7     8    1
     9     7     9   ar
    10     9    10   ar
    11    10    11   ar
    12    11    12   ar
    13     1    12    1
    14     1    15    1
    15    15    16   ar
    16    16    17   ar
    17    17    18   ar
    18    18    19   ar
    19    19    21    1
    20    21    22    1
    21    19    20   ar
    22    20    23    1
    23    23    24    1
    24     1    25    1
    25    25    26    1
    26    25    37    1
    27    37    38    1
    28    38    39    1
    29    39    40    1
    30    39    41    1
    31    25    28    1
    32    28    29   ar
    33    29    30   ar
    34    30    31   ar
    35    31    32   ar
    36    32    33   ar
    37    33    34   ar
    38    34    35   ar
    39    35    36   ar
    40    12     2   ar
    41    20    15   ar
    42    36    28   ar
    43    10     4   ar
    44    35    31   ar
    45    26    27    1
@<TRIPOS>MOLECULE
*****
 41 45 0 0 0
SMALL
GASTEIGER

@<TRIPOS>ATOM
      1 C         141.6555  140.8510  161.8547 C.3     1  UNL1        0.0792
      2 C         142.5469  141.5608  159.5198 C.ar    1  UNL1        0.1351
      3 C         142.9997  141.1975  158.1366 C.ar    1  UNL1        0.0366
      4 C         143.0139  139.7609  157.7053 C.ar    1  UNL1        0.0030
      5 C         143.4666  139.3975  156.3222 C.ar    1  UNL1        0.0006
      6 C         143.4808  137.9610  155.8909 C.ar    1  UNL1        0.0067
      7 C         143.0422  136.8878  156.8426 C.ar    1  UNL1        0.0346
      8 BR        143.0563  135.4512  156.4113 Br      1  UNL1       -0.0490
      9 C         142.5894  137.2511  158.2258 C.ar    1  UNL1        0.0067
     10 C         142.5752  138.6877  158.6571 C.ar    1  UNL1        0.0004
     11 C         142.1224  139.0511  160.0402 C.ar    1  UNL1       -0.0009
     12 C         142.1083  140.4877  160.4715 C.ar    1  UNL1        0.0182
     13 C         142.0648  144.0608  159.0023 C.3     1  UNL1        0.2525
     14 O         142.5328  142.9974  159.9511 O.3     1  UNL1       -0.4717
     15 C         140.3030  141.4651  162.0639 C.ar    1  UNL1        0.0245
     16 C         139.0753  140.7643  161.5622 C.ar    1  UNL1        0.0200
     17 C         137.7229  141.3784  161.7715 C.ar    1  UNL1        0.1019
     18 N         137.5982  142.6933  162.4825 N.ar    1  UNL1       -0.2076
     19 C         138.8258  143.3941  162.9842 C.ar    1  UNL1        0.2598
     20 C         140.1783  142.7800  162.7749 C.ar    1  UNL1        0.1879
     21 O         138.7011  144.7089  163.6952 O.3     1  UNL1       -0.4541
     22 C         138.6935  144.7531  165.1945 C.3     1  UNL1        0.2543
     23 O         141.4059  143.4807  163.2766 O.3     1  UNL1       -0.4670
     24 C         141.8101  144.7997  162.6875 C.3     1  UNL1        0.2527
     25 C         142.5551  140.6003  163.0284 C.3     1  UNL1        0.1159
     26 O         143.5780  141.5278  162.4426 O.3     1  UNL1       -0.3820
     27 H         144.2796  141.0092  162.0187 H       1  UNL1        0.2107
     28 C         141.5322  139.6727  163.6143 C.ar    1  UNL1        0.0026
     29 C         141.3694  138.2887  163.0592 C.ar    1  UNL1        0.0011
     30 C         140.3464  137.3612  163.6451 C.ar    1  UNL1        0.0372
     31 C         139.4863  137.8176  164.7860 C.ar    1  UNL1        0.1454
     32 O         138.4020  137.1312  165.5627 O.2     1  UNL1       -0.4504
     33 C         137.8946  138.0910  166.5978 C.ar    1  UNL1        0.1796
     34 C         138.6653  139.3705  166.4608 C.ar    1  UNL1        0.0437
     35 C         139.6491  139.2016  165.3411 C.ar    1  UNL1        0.0375
     36 C         140.6720  140.1291  164.7553 C.ar    1  UNL1        0.0011
     37 C         143.4547  140.3495  164.2022 C.3     1  UNL1        0.0491
     38 C         144.4408  141.3964  164.6285 C.3     1  UNL1        0.0750
     39 N         143.9905  142.5508  165.4740 N.3     1  UNL1       -0.2702
     40 C         143.0556  142.3186  166.6238 C.3     1  UNL1        0.0897
     41 C         144.4752  143.9373  165.1696 C.3     1  UNL1        0.0897
@<TRIPOS>BOND
     1    13    14    1
     2    14     2    1
     3     2     3   ar
     4     3     4   ar
     5     4     5   ar
     6     5     6   ar
     7     6     7   ar
     8     7     8    1
     9     7     9   ar
    10     9    10   ar
    11    10    11   ar
    12    11    12   ar
    13     1    12    1
    14     1    15    1
    15    15    16   ar
    16    16    17   ar
    17    17    18   ar
    18    18    19   ar
    19    19    21    1
    20    21    22    1
    21    19    20   ar
    22    20    23    1
    23    23    24    1
    24     1    25    1
    25    25    26    1
    26    25    37    1
    27    37    38    1
    28    38    39    1
    29    39    40    1
    30    39    41    1
    31    25    28    1
    32    28    29   ar
    33    29    30   ar
    34    30    31   ar
    35    31    32   ar
    36    32    33   ar
    37    33    34   ar
    38    34    35   ar
    39    35    36   ar
    40    12     2   ar
    41    20    15   ar
    42    36    28   ar
    43    10     4   ar
    44    35    31   ar
    45    26    27    1
@<TRIPOS>MOLECULE
*****
 41 45 0 0 0
SMALL
GASTEIGER

@<TRIPOS>ATOM
      1 C         141.0676  142.0271  162.5206 C.3     1  UNL1        0.0792
      2 C         140.0380  143.2342  164.5781 C.ar    1  UNL1        0.1351
      3 C         139.8377  143.3309  166.0615 C.ar    1  UNL1        0.0366
      4 C         140.4665  142.3172  166.9709 C.ar    1  UNL1        0.0030
      5 C         140.2662  142.4139  168.4543 C.ar    1  UNL1        0.0006
      6 C         140.8950  141.4002  169.3637 C.ar    1  UNL1        0.0067
      7 C         141.7242  140.2898  168.7897 C.ar    1  UNL1        0.0346
      8 BR        142.3530  139.2761  169.6990 Br      1  UNL1       -0.0490
      9 C         141.9245  140.1931  167.3062 C.ar    1  UNL1        0.0067
     10 C         141.2957  141.2068  166.3968 C.ar    1  UNL1        0.0004
     11 C         141.4960  141.1101  164.9134 C.ar    1  UNL1       -0.0009
     12 C         140.8672  142.1239  164.0041 C.ar    1  UNL1        0.0182
     13 C         137.9271  144.2316  163.4382 C.3     1  UNL1        0.2525
     14 O         139.4092  144.2479  163.6687 O.3     1  UNL1       -0.4717
     15 C         139.9561  141.5299  161.6445 C.ar    1  UNL1        0.0245
     16 C         139.3825  140.1615  161.8648 C.ar    1  UNL1        0.0200
     17 C         138.2710  139.6643  160.9887 C.ar    1  UNL1        0.1019
     18 N         137.7332  140.5355  159.8924 N.ar    1  UNL1       -0.2076
     19 C         138.3069  141.9039  159.6722 C.ar    1  UNL1        0.2598
     20 C         139.4183  142.4011  160.5483 C.ar    1  UNL1        0.1879
     21 O         137.7691  142.7750  158.5760 O.3     1  UNL1       -0.4541
     22 C         137.9072  142.3499  157.1441 C.3     1  UNL1        0.2543
     23 O         139.9919  143.7694  160.3281 O.3     1  UNL1       -0.4670
     24 C         140.8188  144.0486  159.1080 C.3     1  UNL1        0.2527
     25 C         142.3793  142.4276  161.9133 C.3     1  UNL1        0.1159
     26 O         142.2026  143.8177  162.4483 O.3     1  UNL1       -0.3820
     27 H         141.8960  144.4015  161.7369 H       1  UNL1        0.2107
     28 C         142.5560  141.0375  161.3782 C.ar    1  UNL1        0.0026
     29 C         142.9043  139.9142  162.3092 C.ar    1  UNL1        0.0011
     30 C         143.0810  138.5240  161.7741 C.ar    1  UNL1        0.0372
     31 C         142.9093  138.2573  160.3080 C.ar    1  UNL1        0.1454
     32 O         143.0197  137.0003  159.4968 O.2     1  UNL1       -0.4504
     33 C         142.7397  137.3468  158.0646 C.ar    1  UNL1        0.1796
     34 C         142.4562  138.8179  157.9905 C.ar    1  UNL1        0.0437
     35 C         142.5610  139.3806  159.3770 C.ar    1  UNL1        0.0375
     36 C         142.3843  140.7707  159.9121 C.ar    1  UNL1        0.0011
     37 C         143.6910  142.8281  161.3060 C.3     1  UNL1        0.0491
     38 C         144.7893  143.3615  162.1774 C.3     1  UNL1        0.0750
     39 N         145.0062  142.7877  163.5463 N.3     1  UNL1       -0.2702
     40 C         145.8111  141.5332  163.7147 C.3     1  UNL1        0.0897
     41 C         144.4182  143.4684  164.7466 C.3     1  UNL1        0.0897
@<TRIPOS>BOND
     1    13    14    1
     2    14     2    1
     3     2     3   ar
     4     3     4   ar
     5     4     5   ar
     6     5     6   ar
     7     6     7   ar
     8     7     8    1
     9     7     9   ar
    10     9    10   ar
    11    10    11   ar
    12    11    12   ar
    13     1    12    1
    14     1    15    1
    15    15    16   ar
    16    16    17   ar
    17    17    18   ar
    18    18    19   ar
    19    19    21    1
    20    21    22    1
    21    19    20   ar
    22    20    23    1
    23    23    24    1
    24     1    25    1
    25    25    26    1
    26    25    37    1
    27    37    38    1
    28    38    39    1
    29    39    40    1
    30    39    41    1
    31    25    28    1
    32    28    29   ar
    33    29    30   ar
    34    30    31   ar
    35    31    32   ar
    36    32    33   ar
    37    33    34   ar
    38    34    35   ar
    39    35    36   ar
    40    12     2   ar
    41    20    15   ar
    42    36    28   ar
    43    10     4   ar
    44    35    31   ar
    45    26    27    1
@<TRIPOS>MOLECULE
*****
 41 45 0 0 0
SMALL
GASTEIGER

@<TRIPOS>ATOM
      1 C         141.2172  142.4322  159.5851 C.3     1  UNL1        0.0792
      2 C         143.6828  142.2660  160.3872 C.ar    1  UNL1        0.1351
      3 C         144.6969  141.7707  161.3753 C.ar    1  UNL1        0.0366
      4 C         144.2593  140.9461  162.5494 C.ar    1  UNL1        0.0030
      5 C         145.2733  140.4507  163.5376 C.ar    1  UNL1        0.0006
      6 C         144.8358  139.6262  164.7117 C.ar    1  UNL1        0.0067
      7 C         143.3843  139.2969  164.8978 C.ar    1  UNL1        0.0346
      8 BR        142.9468  138.4724  166.0719 Br      1  UNL1       -0.0490
      9 C         142.3702  139.7923  163.9096 C.ar    1  UNL1        0.0067
     10 C         142.8077  140.6169  162.7355 C.ar    1  UNL1        0.0004
     11 C         141.7937  141.1122  161.7474 C.ar    1  UNL1       -0.0009
     12 C         142.2313  141.9368  160.5732 C.ar    1  UNL1        0.0182
     13 C         145.0974  142.5278  158.2237 C.3     1  UNL1        0.2525
     14 O         144.1203  143.0906  159.2130 O.3     1  UNL1       -0.4717
     15 C         140.2840  141.4647  158.9193 C.ar    1  UNL1        0.0245
     16 C         138.8353  141.4325  159.3069 C.ar    1  UNL1        0.0200
     17 C         137.9021  140.4651  158.6411 C.ar    1  UNL1        0.1019
     18 N         138.4176  139.5299  157.5877 N.ar    1  UNL1       -0.2076
     19 C         139.8663  139.5621  157.2001 C.ar    1  UNL1        0.2598
     20 C         140.7995  140.5296  157.8659 C.ar    1  UNL1        0.1879
     21 O         140.3818  138.6270  156.1467 O.3     1  UNL1       -0.4541
     22 C         140.5868  137.1760  156.4672 C.3     1  UNL1        0.2543
     23 O         142.2482  140.5618  157.4783 O.3     1  UNL1       -0.4670
     24 C         143.1736  139.4772  157.9444 C.3     1  UNL1        0.2527
     25 C         141.1363  143.8948  159.2628 C.3     1  UNL1        0.1159
     26 O         141.5251  143.6036  157.8436 O.3     1  UNL1       -0.3820
     27 H         142.4649  143.8080  157.7174 H       1  UNL1        0.2107
     28 C         140.7476  144.1861  160.6819 C.ar    1  UNL1        0.0026
     29 C         141.7273  144.8435  161.6081 C.ar    1  UNL1        0.0011
     30 C         141.3384  145.1347  163.0273 C.ar    1  UNL1        0.0372
     31 C         139.9699  144.7685  163.5202 C.ar    1  UNL1        0.1454
     32 O         139.3077  144.9304  164.8564 O.2     1  UNL1       -0.4504
     33 C         137.9188  144.3731  164.7560 C.ar    1  UNL1        0.1796
     34 C         137.7225  143.8666  163.3578 C.ar    1  UNL1        0.0437
     35 C         138.9902  144.1110  162.5940 C.ar    1  UNL1        0.0375
     36 C         139.3790  143.8198  161.1749 C.ar    1  UNL1        0.0011
     37 C         141.0555  145.3575  158.9405 C.3     1  UNL1        0.0491
     38 C         141.6985  145.8874  157.6932 C.3     1  UNL1        0.0750
     39 N         140.8665  146.1463  156.4722 N.3     1  UNL1       -0.2702
     40 C         139.5218  146.7975  156.6053 C.3     1  UNL1        0.0897
     41 C         141.3791  145.7539  155.1182 C.3     1  UNL1        0.0897
@<TRIPOS>BOND
     1    13    14    1
     2    14     2    1
     3     2     3   ar
     4     3     4   ar
     5     4     5   ar
     6     5     6   ar
     7     6     7   ar
     8     7     8    1
     9     7     9   ar
    10     9    10   ar
    11    10    11   ar
    12    11    12   ar
    13     1    12    1
    14     1    15    1
    15    15    16   ar
    16    16    17   ar
    17    17    18   ar
    18    18    19   ar
    19    19    21    1
    20    21    22    1
    21    19    20   ar
    22    20    23    1
    23    23    24    1
    24     1    25    1
    25    25    26    1
    26    25    37    1
    27    37    38    1
    28    38    39    1
    29    39    40    1
    30    39    41    1
    31    25    28    1
    32    28    29   ar
    33    29    30   ar
    34    30    31   ar
    35    31    32   ar
    36    32    33   ar
    37    33    34   ar
    38    34    35   ar
    39    35    36   ar
    40    12     2   ar
    41    20    15   ar
    42    36    28   ar
    43    10     4   ar
    44    35    31   ar
    45    26    27    1
@<TRIPOS>MOLECULE
*****
 41 45 0 0 0
SMALL
GASTEIGER

@<TRIPOS>ATOM
      1 C         141.2663  141.6009  162.8335 C.3     1  UNL1        0.0792
      2 C         142.3877  143.0929  164.6408 C.ar    1  UNL1        0.1351
      3 C         142.9007  143.2766  166.0384 C.ar    1  UNL1        0.0366
      4 C         142.8052  142.1518  167.0263 C.ar    1  UNL1        0.0030
      5 C         143.3181  142.3354  168.4238 C.ar    1  UNL1        0.0006
      6 C         143.2226  141.2107  169.4116 C.ar    1  UNL1        0.0067
      7 C         142.6142  139.9023  169.0019 C.ar    1  UNL1        0.0346
      8 BR        142.5187  138.7775  169.9897 Br      1  UNL1       -0.0490
      9 C         142.1012  139.7186  167.6043 C.ar    1  UNL1        0.0067
     10 C         142.1967  140.8434  166.6165 C.ar    1  UNL1        0.0004
     11 C         141.6838  140.6598  165.2190 C.ar    1  UNL1       -0.0009
     12 C         141.7793  141.7846  164.2311 C.ar    1  UNL1        0.0182
     13 C         143.7725  144.9674  163.4925 C.3     1  UNL1        0.2525
     14 O         142.4832  144.2177  163.6530 O.3     1  UNL1       -0.4717
     15 C         141.9648  142.2660  161.6848 C.ar    1  UNL1        0.0245
     16 C         143.3762  141.8882  161.3449 C.ar    1  UNL1        0.0200
     17 C         144.0747  142.5534  160.1962 C.ar    1  UNL1        0.1019
     18 N         143.3619  143.5963  159.3873 N.ar    1  UNL1       -0.2076
     19 C         141.9506  143.9741  159.7271 C.ar    1  UNL1        0.2598
     20 C         141.2521  143.3089  160.8759 C.ar    1  UNL1        0.1879
     21 O         141.2378  145.0169  158.9183 O.3     1  UNL1       -0.4541
     22 C         141.9149  145.6393  157.7333 C.3     1  UNL1        0.2543
     23 O         139.8408  143.6867  161.2158 O.3     1  UNL1       -0.4670
     24 C         139.5677  144.9280  162.0125 C.3     1  UNL1        0.2527
     25 C         140.0548  140.7521  162.5848 C.3     1  UNL1        0.1159
     26 O         139.2256  141.6954  163.4048 O.3     1  UNL1       -0.3820
     27 H         139.0889  141.3207  164.2890 H       1  UNL1        0.2107
     28 C         140.8841  139.8089  161.7647 C.ar    1  UNL1        0.0026
     29 C         141.9116  138.9415  162.4295 C.ar    1  UNL1        0.0011
     30 C         142.7409  137.9983  161.6093 C.ar    1  UNL1        0.0372
     31 C         142.5426  137.9224  160.1245 C.ar    1  UNL1        0.1454
     32 O         143.2066  137.0947  159.0642 O.2     1  UNL1       -0.4504
     33 C         142.5895  137.4505  157.7441 C.ar    1  UNL1        0.1796
     34 C         141.5441  138.4981  157.9886 C.ar    1  UNL1        0.0437
     35 C         141.5151  138.7897  159.4597 C.ar    1  UNL1        0.0375
     36 C         140.6859  139.7329  160.2797 C.ar    1  UNL1        0.0011
     37 C         138.8434  139.9034  162.3360 C.3     1  UNL1        0.0491
     38 C         137.9301  139.5485  163.4718 C.3     1  UNL1        0.0750
     39 N         138.4853  138.9041  164.7074 N.3     1  UNL1       -0.2702
     40 C         138.2342  139.5200  166.0519 C.3     1  UNL1        0.0897
     41 C         139.2915  137.6439  164.5984 C.3     1  UNL1        0.0897
@<TRIPOS>BOND
     1    13    14    1
     2    14     2    1
     3     2     3   ar
     4     3     4   ar
     5     4     5   ar
     6     5     6   ar
     7     6     7   ar
     8     7     8    1
     9     7     9   ar
    10     9    10   ar
    11    10    11   ar
    12    11    12   ar
    13     1    12    1
    14     1    15    1
    15    15    16   ar
    16    16    17   ar
    17    17    18   ar
    18    18    19   ar
    19    19    21    1
    20    21    22    1
    21    19    20   ar
    22    20    23    1
    23    23    24    1
    24     1    25    1
    25    25    26    1
    26    25    37    1
    27    37    38    1
    28    38    39    1
    29    39    40    1
    30    39    41    1
    31    25    28    1
    32    28    29   ar
    33    29    30   ar
    34    30    31   ar
    35    31    32   ar
    36    32    33   ar
    37    33    34   ar
    38    34    35   ar
    39    35    36   ar
    40    12     2   ar
    41    20    15   ar
    42    36    28   ar
    43    10     4   ar
    44    35    31   ar
    45    26    27    1
@<TRIPOS>MOLECULE
*****
 41 45 0 0 0
SMALL
GASTEIGER

@<TRIPOS>ATOM
      1 C         140.3259  141.9926  160.2941 C.3     1  UNL1        0.0792
      2 C         141.2845  139.6968  161.0429 C.ar    1  UNL1        0.1351
      3 C         141.3217  138.5618  162.0230 C.ar    1  UNL1        0.0366
      4 C         140.4374  138.5877  163.2344 C.ar    1  UNL1        0.0030
      5 C         140.4745  137.4528  164.2144 C.ar    1  UNL1        0.0006
      6 C         139.5902  137.4786  165.4257 C.ar    1  UNL1        0.0067
      7 C         138.6688  138.6394  165.6570 C.ar    1  UNL1        0.0346
      8 BR        137.7845  138.6652  166.8684 Br      1  UNL1       -0.0490
      9 C         138.6316  139.7744  164.6770 C.ar    1  UNL1        0.0067
     10 C         139.5159  139.7485  163.4656 C.ar    1  UNL1        0.0004
     11 C         139.4788  140.8834  162.4856 C.ar    1  UNL1       -0.0009
     12 C         140.3631  140.8576  161.2742 C.ar    1  UNL1        0.0182
     13 C         143.5648  139.1316  159.9335 C.3     1  UNL1        0.2525
     14 O         142.1688  139.6710  159.8316 O.3     1  UNL1       -0.4717
     15 C         140.0321  141.7252  158.8477 C.ar    1  UNL1        0.0245
     16 C         141.0972  141.9408  157.8137 C.ar    1  UNL1        0.0200
     17 C         140.8034  141.6734  156.3673 C.ar    1  UNL1        0.1019
     18 N         139.4445  141.1903  155.9549 N.ar    1  UNL1       -0.2076
     19 C         138.3795  140.9747  156.9888 C.ar    1  UNL1        0.2598
     20 C         138.6733  141.2421  158.4353 C.ar    1  UNL1        0.1879
     21 O         137.0206  140.4916  156.5764 O.3     1  UNL1       -0.4541
     22 C         136.0337  141.4497  155.9781 C.3     1  UNL1        0.2543
     23 O         137.6083  141.0264  159.4693 O.3     1  UNL1       -0.4670
     24 C         137.3668  139.6531  160.0222 C.3     1  UNL1        0.2527
     25 C         140.5826  143.3949  160.7605 C.3     1  UNL1        0.1159
     26 O         139.1911  143.7837  160.3573 O.3     1  UNL1       -0.3820
     27 H         139.2191  144.2494  159.5068 H       1  UNL1        0.2107
     28 C         141.9740  143.0062  161.1638 C.ar    1  UNL1        0.0026
     29 C         143.0792  143.0161  160.1496 C.ar    1  UNL1        0.0011
     30 C         144.4707  142.6273  160.5530 C.ar    1  UNL1        0.0372
     31 C         144.7570  142.2286  161.9704 C.ar    1  UNL1        0.1454
     32 O         146.0198  141.7993  162.6567 O.2     1  UNL1       -0.4504
     33 C         145.6951  141.5240  164.0950 C.ar    1  UNL1        0.1796
     34 C         144.2316  141.7832  164.2976 C.ar    1  UNL1        0.0437
     35 C         143.6518  142.2187  162.9845 C.ar    1  UNL1        0.0375
     36 C         142.2604  142.6074  162.5812 C.ar    1  UNL1        0.0011
     37 C         140.8392  144.7973  161.2269 C.3     1  UNL1        0.0491
     38 C         139.8072  145.5167  162.0439 C.3     1  UNL1        0.0750
     39 N         139.1804  144.8387  163.2261 N.3     1  UNL1       -0.2702
     40 C         137.7630  144.3542  163.1484 C.3     1  UNL1        0.0897
     41 C         139.9711  144.6453  164.4860 C.3     1  UNL1        0.0897
@<TRIPOS>BOND
     1    13    14    1
     2    14     2    1
     3     2     3   ar
     4     3     4   ar
     5     4     5   ar
     6     5     6   ar
     7     6     7   ar
     8     7     8    1
     9     7     9   ar
    10     9    10   ar
    11    10    11   ar
    12    11    12   ar
    13     1    12    1
    14     1    15    1
    15    15    16   ar
    16    16    17   ar
    17    17    18   ar
    18    18    19   ar
    19    19    21    1
    20    21    22    1
    21    19    20   ar
    22    20    23    1
    23    23    24    1
    24     1    25    1
    25    25    26    1
    26    25    37    1
    27    37    38    1
    28    38    39    1
    29    39    40    1
    30    39    41    1
    31    25    28    1
    32    28    29   ar
    33    29    30   ar
    34    30    31   ar
    35    31    32   ar
    36    32    33   ar
    37    33    34   ar
    38    34    35   ar
    39    35    36   ar
    40    12     2   ar
    41    20    15   ar
    42    36    28   ar
    43    10     4   ar
    44    35    31   ar
    45    26    27    1
@<TRIPOS>MOLECULE
*****
 41 45 0 0 0
SMALL
GASTEIGER

@<TRIPOS>ATOM
      1 C         141.6796  140.3756  161.2533 C.3     1  UNL1        0.0792
      2 C         142.5921  138.7260  163.0412 C.ar    1  UNL1        0.1351
      3 C         142.9060  138.4048  164.4724 C.ar    1  UNL1        0.0366
      4 C         142.6214  139.4119  165.5469 C.ar    1  UNL1        0.0030
      5 C         142.9353  139.0907  166.9781 C.ar    1  UNL1        0.0006
      6 C         142.6506  140.0979  168.0526 C.ar    1  UNL1        0.0067
      7 C         142.0520  141.4262  167.6960 C.ar    1  UNL1        0.0346
      8 BR        141.7674  142.4333  168.7705 Br      1  UNL1       -0.0490
      9 C         141.7381  141.7474  166.2648 C.ar    1  UNL1        0.0067
     10 C         142.0228  140.7403  165.1902 C.ar    1  UNL1        0.0004
     11 C         141.7088  141.0615  163.7591 C.ar    1  UNL1       -0.0009
     12 C         141.9935  140.0543  162.6845 C.ar    1  UNL1        0.0182
     13 C         144.2529  137.6187  161.3781 C.3     1  UNL1        0.2525
     14 O         142.8768  137.7189  161.9666 O.3     1  UNL1       -0.4717
     15 C         142.7574  140.8918  160.3467 C.ar    1  UNL1        0.0245
     16 C         143.4864  142.1563  160.6926 C.ar    1  UNL1        0.0200
     17 C         144.5642  142.6725  159.7860 C.ar    1  UNL1        0.1019
     18 N         144.9129  141.9242  158.5336 N.ar    1  UNL1       -0.2076
     19 C         144.1839  140.6598  158.1878 C.ar    1  UNL1        0.2598
     20 C         143.1061  140.1435  159.0944 C.ar    1  UNL1        0.1879
     21 O         144.5327  139.9115  156.9354 O.3     1  UNL1       -0.4541
     22 C         144.1542  140.4723  155.5967 C.3     1  UNL1        0.2543
     23 O         142.3771  138.8791  158.7486 O.3     1  UNL1       -0.4670
     24 C         141.4288  138.8538  157.5866 C.3     1  UNL1        0.2527
     25 C         140.2879  140.1806  160.7288 C.3     1  UNL1        0.1159
     26 O         140.4253  138.6986  160.9151 O.3     1  UNL1       -0.3820
     27 H         140.6164  138.2816  160.0604 H       1  UNL1        0.2107
     28 C         140.1505  141.6626  160.5425 C.ar    1  UNL1        0.0026
     29 C         140.1701  142.2500  159.1624 C.ar    1  UNL1        0.0011
     30 C         140.0327  143.7321  158.9761 C.ar    1  UNL1        0.0372
     31 C         139.8757  144.6267  160.1699 C.ar    1  UNL1        0.1454
     32 O         139.7201  146.1132  160.2966 O.2     1  UNL1       -0.4504
     33 C         139.6043  146.4445  161.7550 C.ar    1  UNL1        0.1796
     34 C         139.6883  145.1627  162.5296 C.ar    1  UNL1        0.0437
     35 C         139.8561  144.0392  161.5499 C.ar    1  UNL1        0.0375
     36 C         139.9935  142.5572  161.7362 C.ar    1  UNL1        0.0011
     37 C         138.8962  139.9856  160.2042 C.3     1  UNL1        0.0491
     38 C         137.8576  139.3243  161.0609 C.3     1  UNL1        0.0750
     39 N         138.0193  139.3008  162.5520 N.3     1  UNL1       -0.2702
     40 C         137.6681  140.5124  163.3636 C.3     1  UNL1        0.0897
     41 C         138.5321  138.0658  163.2314 C.3     1  UNL1        0.0897
@<TRIPOS>BOND
     1    13    14    1
     2    14     2    1
     3     2     3   ar
     4     3     4   ar
     5     4     5   ar
     6     5     6   ar
     7     6     7   ar
     8     7     8    1
     9     7     9   ar
    10     9    10   ar
    11    10    11   ar
    12    11    12   ar
    13     1    12    1
    14     1    15    1
    15    15    16   ar
    16    16    17   ar
    17    17    18   ar
    18    18    19   ar
    19    19    21    1
    20    21    22    1
    21    19    20   ar
    22    20    23    1
    23    23    24    1
    24     1    25    1
    25    25    26    1
    26    25    37    1
    27    37    38    1
    28    38    39    1
    29    39    40    1
    30    39    41    1
    31    25    28    1
    32    28    29   ar
    33    29    30   ar
    34    30    31   ar
    35    31    32   ar
    36    32    33   ar
    37    33    34   ar
    38    34    35   ar
    39    35    36   ar
    40    12     2   ar
    41    20    15   ar
    42    36    28   ar
    43    10     4   ar
    44    35    31   ar
    45    26    27    1
@<TRIPOS>MOLECULE
*****
 41 45 0 0 0
SMALL
GASTEIGER

@<TRIPOS>ATOM
      1 C         142.2002  140.9228  161.4330 C.3     1  UNL1        0.0792
      2 C         140.1175  139.9219  160.2452 C.ar    1  UNL1        0.1351
      3 C         139.5238  139.0687  159.1637 C.ar    1  UNL1        0.0366
      4 C         140.4190  138.3630  158.1888 C.ar    1  UNL1        0.0030
      5 C         139.8253  137.5097  157.1074 C.ar    1  UNL1        0.0006
      6 C         140.7206  136.8040  156.1324 C.ar    1  UNL1        0.0067
      7 C         142.2094  136.9516  156.2388 C.ar    1  UNL1        0.0346
      8 BR        143.1047  136.2459  155.2638 Br      1  UNL1       -0.0490
      9 C         142.8032  137.8049  157.3203 C.ar    1  UNL1        0.0067
     10 C         141.9080  138.5106  158.2952 C.ar    1  UNL1        0.0004
     11 C         142.5017  139.3638  159.3766 C.ar    1  UNL1       -0.0009
     12 C         141.6064  140.0695  160.3516 C.ar    1  UNL1        0.0182
     13 C         138.3192  141.7284  160.7481 C.3     1  UNL1        0.2525
     14 O         139.2223  140.6276  161.2202 O.3     1  UNL1       -0.4717
     15 C         141.7881  142.3589  161.5664 C.ar    1  UNL1        0.0245
     16 C         141.2864  142.8761  162.8821 C.ar    1  UNL1        0.0200
     17 C         140.8743  144.3122  163.0155 C.ar    1  UNL1        0.1019
     18 N         140.9639  145.2311  161.8332 N.ar    1  UNL1       -0.2076
     19 C         141.4656  144.7139  160.5177 C.ar    1  UNL1        0.2598
     20 C         141.8777  143.2778  160.3843 C.ar    1  UNL1        0.1879
     21 O         141.5552  145.6328  159.3355 O.3     1  UNL1       -0.4541
     22 C         140.4768  145.6209  158.2930 C.3     1  UNL1        0.2543
     23 O         142.3794  142.7606  159.0687 O.3     1  UNL1       -0.4670
     24 C         143.8213  142.9361  158.6944 C.3     1  UNL1        0.2527
     25 C         143.2060  140.3400  162.3810 C.3     1  UNL1        0.1159
     26 O         144.2842  141.1662  161.7450 O.3     1  UNL1       -0.3820
     27 H         144.7991  140.6131  161.1368 H       1  UNL1        0.2107
     28 C         142.1277  139.5137  163.0170 C.ar    1  UNL1        0.0026
     29 C         141.9911  138.0614  162.6675 C.ar    1  UNL1        0.0011
     30 C         140.9127  137.2352  163.3036 C.ar    1  UNL1        0.0372
     31 C         139.9711  137.8612  164.2892 C.ar    1  UNL1        0.1454
     32 O         138.8197  137.3025  165.0716 O.2     1  UNL1       -0.4504
     33 C         138.2448  138.4095  165.9047 C.ar    1  UNL1        0.1796
     34 C         139.0408  139.6523  165.6371 C.ar    1  UNL1        0.0437
     35 C         140.1077  139.3135  164.6387 C.ar    1  UNL1        0.0375
     36 C         141.1860  140.1398  164.0026 C.ar    1  UNL1        0.0011
     37 C         144.2117  139.7571  163.3290 C.3     1  UNL1        0.0491
     38 C         145.0077  140.6586  164.2255 C.3     1  UNL1        0.0750
     39 N         144.3529  141.8452  164.8685 N.3     1  UNL1       -0.2702
     40 C         143.3825  141.6474  165.9951 C.3     1  UNL1        0.0897
     41 C         144.6685  143.2296  164.3849 C.3     1  UNL1        0.0897
@<TRIPOS>BOND
     1    13    14    1
     2    14     2    1
     3     2     3   ar
     4     3     4   ar
     5     4     5   ar
     6     5     6   ar
     7     6     7   ar
     8     7     8    1
     9     7     9   ar
    10     9    10   ar
    11    10    11   ar
    12    11    12   ar
    13     1    12    1
    14     1    15    1
    15    15    16   ar
    16    16    17   ar
    17    17    18   ar
    18    18    19   ar
    19    19    21    1
    20    21    22    1
    21    19    20   ar
    22    20    23    1
    23    23    24    1
    24     1    25    1
    25    25    26    1
    26    25    37    1
    27    37    38    1
    28    38    39    1
    29    39    40    1
    30    39    41    1
    31    25    28    1
    32    28    29   ar
    33    29    30   ar
    34    30    31   ar
    35    31    32   ar
    36    32    33   ar
    37    33    34   ar
    38    34    35   ar
    39    35    36   ar
    40    12     2   ar
    41    20    15   ar
    42    36    28   ar
    43    10     4   ar
    44    35    31   ar
    45    26    27    1
@<TRIPOS>MOLECULE
*****
 41 45 0 0 0
SMALL
GASTEIGER

@<TRIPOS>ATOM
      1 C         141.7116  141.5529  159.1528 C.3     1  UNL1        0.0792
      2 C         140.2258  139.6566  160.1258 C.ar    1  UNL1        0.1351
      3 C         139.9249  138.6725  161.2172 C.ar    1  UNL1        0.0366
      4 C         140.8089  138.6005  162.4269 C.ar    1  UNL1        0.0030
      5 C         140.5081  137.6164  163.5182 C.ar    1  UNL1        0.0006
      6 C         141.3922  137.5445  164.7278 C.ar    1  UNL1        0.0067
      7 C         142.5771  138.4566  164.8462 C.ar    1  UNL1        0.0346
      8 BR        143.4611  138.3846  166.0558 Br      1  UNL1       -0.0490
      9 C         142.8780  139.4407  163.7548 C.ar    1  UNL1        0.0067
     10 C         141.9939  139.5127  162.5451 C.ar    1  UNL1        0.0004
     11 C         142.2947  140.4967  161.4538 C.ar    1  UNL1       -0.0009
     12 C         141.4107  140.5687  160.2442 C.ar    1  UNL1        0.0182
     13 C         137.9460  140.2646  159.0381 C.3     1  UNL1        0.2525
     14 O         139.3417  139.7286  158.9162 O.3     1  UNL1       -0.4717
     15 C         143.0388  141.5162  158.4548 C.ar    1  UNL1        0.0245
     16 C         144.0382  142.6107  158.6861 C.ar    1  UNL1        0.0200
     17 C         145.3655  142.5740  157.9882 C.ar    1  UNL1        0.1019
     18 N         145.6933  141.4429  157.0590 N.ar    1  UNL1       -0.2076
     19 C         144.6938  140.3486  156.8278 C.ar    1  UNL1        0.2598
     20 C         143.3666  140.3852  157.5257 C.ar    1  UNL1        0.1879
     21 O         145.0216  139.2176  155.8986 O.3     1  UNL1       -0.4541
     22 C         144.7409  139.3474  154.4309 C.3     1  UNL1        0.2543
     23 O         142.3672  139.2909  157.2945 O.3     1  UNL1       -0.4670
     24 C         142.5852  137.9358  157.8998 C.3     1  UNL1        0.2527
     25 C         140.6852  142.5736  158.7594 C.3     1  UNL1        0.1159
     26 O         140.6197  141.9777  157.3844 O.3     1  UNL1       -0.3820
     27 H         141.1386  142.5215  156.7713 H       1  UNL1        0.2107
     28 C         140.7508  143.1694  160.1344 C.ar    1  UNL1        0.0026
     29 C         141.9744  143.9204  160.5688 C.ar    1  UNL1        0.0011
     30 C         142.0399  144.5163  161.9439 C.ar    1  UNL1        0.0372
     31 C         140.8819  144.3611  162.8844 C.ar    1  UNL1        0.1454
     32 O         140.6601  144.8351  164.2902 O.2     1  UNL1       -0.4504
     33 C         139.2994  144.3771  164.7246 C.ar    1  UNL1        0.1796
     34 C         138.6802  143.6200  163.5873 C.ar    1  UNL1        0.0437
     35 C         139.6582  143.6101  162.4500 C.ar    1  UNL1        0.0375
     36 C         139.5927  143.0142  161.0751 C.ar    1  UNL1        0.0011
     37 C         139.6589  143.5943  158.3660 C.3     1  UNL1        0.0491
     38 C         139.8032  144.3439  157.0748 C.3     1  UNL1        0.0750
     39 N         141.1313  144.9248  156.6892 N.3     1  UNL1       -0.2702
     40 C         141.7852  144.5130  155.4035 C.3     1  UNL1        0.0897
     41 C         141.8055  145.9175  157.5892 C.3     1  UNL1        0.0897
@<TRIPOS>BOND
     1    13    14    1
     2    14     2    1
     3     2     3   ar
     4     3     4   ar
     5     4     5   ar
     6     5     6   ar
     7     6     7   ar
     8     7     8    1
     9     7     9   ar
    10     9    10   ar
    11    10    11   ar
    12    11    12   ar
    13     1    12    1
    14     1    15    1
    15    15    16   ar
    16    16    17   ar
    17    17    18   ar
    18    18    19   ar
    19    19    21    1
    20    21    22    1
    21    19    20   ar
    22    20    23    1
    23    23    24    1
    24     1    25    1
    25    25    26    1
    26    25    37    1
    27    37    38    1
    28    38    39    1
    29    39    40    1
    30    39    41    1
    31    25    28    1
    32    28    29   ar
    33    29    30   ar
    34    30    31   ar
    35    31    32   ar
    36    32    33   ar
    37    33    34   ar
    38    34    35   ar
    39    35    36   ar
    40    12     2   ar
    41    20    15   ar
    42    36    28   ar
    43    10     4   ar
    44    35    31   ar
    45    26    27    1
