@<TRIPOS>MOLECULE
*****
 24 27 0 0 0
SMALL
GASTEIGER

@<TRIPOS>ATOM
      1 C         141.2624  141.5850  168.5826 C.3     1  UNL1        0.0385
      2 C         141.1389  140.6365  169.7381 C.3     1  UNL1        0.0228
      3 C         140.7290  141.4274  170.9450 C.3     1  UNL1        0.0689
      4 N         140.5993  142.8645  170.5354 N.3     1  UNL1       -0.2972
      5 C         140.9290  142.9619  169.0753 C.3     1  UNL1        0.0729
      6 H         141.2470  143.4382  171.0756 H       1  UNL1        0.1233
      7 C         140.3817  144.9881  163.2534 C.2     1  UNL1        0.1488
      8 C         139.6199  144.5544  164.4706 C.2     1  UNL1        0.0308
      9 C         140.5391  143.7317  165.3241 C.2     1  UNL1        0.0158
     10 C         140.3369  143.0411  166.6401 C.2     1  UNL1       -0.0033
     11 C         141.4646  142.2757  167.2665 C.2     1  UNL1       -0.0250
     12 C         142.7945  142.2010  166.5767 C.2     1  UNL1       -0.0240
     13 C         142.9967  142.8916  165.2607 C.3     1  UNL1        0.0714
     14 C         141.8690  143.6570  164.6344 C.2     1  UNL1        0.0641
     15 N         141.7717  144.4335  163.3546 N.2     1  UNL1       -0.2390
     16 N         139.3129  146.6694  161.0105 N.1     1  UNL1       -0.1893
     17 C         139.8473  145.8288  162.1320 C.1     1  UNL1        0.1197
     18 C         141.6382  140.3524  167.8147 C.3     1  UNL1        0.0317
     19 C         140.6021  139.6256  167.0095 C.ar    1  UNL1       -0.0218
     20 C         140.9977  138.9018  165.7565 C.ar    1  UNL1       -0.0043
     21 C         139.9617  138.1750  164.9513 C.ar    1  UNL1       -0.0003
     22 C         138.5301  138.1718  165.3991 C.ar    1  UNL1       -0.0000
     23 C         138.1344  138.8955  166.6520 C.ar    1  UNL1       -0.0003
     24 C         139.1705  139.6224  167.4572 C.ar    1  UNL1       -0.0043
@<TRIPOS>BOND
     1    16    17    3
     2    17     7    1
     3     7     8    2
     4     8     9    1
     5     9    10    2
     6    10    11    1
     7    11     1    1
     8     1    18    1
     9    18    19    1
    10    19    20   ar
    11    20    21   ar
    12    21    22   ar
    13    22    23   ar
    14    23    24   ar
    15     1     2    1
    16     2     3    1
    17     3     4    1
    18     4     5    1
    19    11    12    2
    20    12    13    1
    21    13    14    1
    22    14    15    2
    23    15     7    1
    24    14     9    1
    25     5     1    1
    26    24    19   ar
    27     4     6    1
@<TRIPOS>MOLECULE
*****
 24 27 0 0 0
SMALL
GASTEIGER

@<TRIPOS>ATOM
      1 C         139.9641  138.8408  163.3581 C.3     1  UNL1        0.0385
      2 C         140.0384  138.7760  161.8613 C.3     1  UNL1        0.0228
      3 C         141.2401  137.9579  161.4919 C.3     1  UNL1        0.0689
      4 N         141.9085  137.5169  162.7603 N.3     1  UNL1       -0.2972
      5 C         141.1198  138.0626  163.9137 C.3     1  UNL1        0.0729
      6 H         142.8624  137.8767  162.7921 H       1  UNL1        0.1233
      7 C         140.0856  140.8424  169.4191 C.2     1  UNL1        0.1488
      8 C         140.8850  140.9738  168.1566 C.2     1  UNL1        0.0308
      9 C         140.1972  140.1776  167.0875 C.2     1  UNL1        0.0158
     10 C         140.5276  139.9398  165.6438 C.2     1  UNL1       -0.0033
     11 C         139.6336  139.0786  164.8018 C.2     1  UNL1       -0.0250
     12 C         138.4092  138.4552  165.4035 C.2     1  UNL1       -0.0240
     13 C         138.0787  138.6929  166.8471 C.3     1  UNL1        0.0714
     14 C         138.9727  139.5542  167.6891 C.2     1  UNL1        0.0641
     15 N         138.9038  139.9650  169.1301 N.2     1  UNL1       -0.2390
     16 N         140.7363  142.1115  172.0584 N.1     1  UNL1       -0.1893
     17 C         140.4110  141.4770  170.7387 C.1     1  UNL1        0.1197
     18 C         138.7393  139.6687  163.1043 C.3     1  UNL1        0.0317
     19 C         138.8077  141.1629  163.2161 C.ar    1  UNL1       -0.0218
     20 C         137.7649  141.9050  163.9985 C.ar    1  UNL1       -0.0043
     21 C         137.8333  143.3993  164.1103 C.ar    1  UNL1       -0.0003
     22 C         138.9445  144.1515  163.4397 C.ar    1  UNL1       -0.0000
     23 C         139.9872  143.4094  162.6574 C.ar    1  UNL1       -0.0003
     24 C         139.9188  141.9151  162.5456 C.ar    1  UNL1       -0.0043
@<TRIPOS>BOND
     1    16    17    3
     2    17     7    1
     3     7     8    2
     4     8     9    1
     5     9    10    2
     6    10    11    1
     7    11     1    1
     8     1    18    1
     9    18    19    1
    10    19    20   ar
    11    20    21   ar
    12    21    22   ar
    13    22    23   ar
    14    23    24   ar
    15     1     2    1
    16     2     3    1
    17     3     4    1
    18     4     5    1
    19    11    12    2
    20    12    13    1
    21    13    14    1
    22    14    15    2
    23    15     7    1
    24    14     9    1
    25     5     1    1
    26    24    19   ar
    27     4     6    1
@<TRIPOS>MOLECULE
*****
 24 27 0 0 0
SMALL
GASTEIGER

@<TRIPOS>ATOM
      1 C         139.0087  139.1577  163.4864 C.3     1  UNL1        0.0385
      2 C         138.8283  138.0539  162.4868 C.3     1  UNL1        0.0228
      3 C         137.7571  138.4715  161.5235 C.3     1  UNL1        0.0689
      4 N         137.2753  139.8332  161.9277 N.3     1  UNL1       -0.2972
      5 C         138.0489  140.2574  163.1409 C.3     1  UNL1        0.0729
      6 H         136.2798  139.7972  162.1470 H       1  UNL1        0.1233
      7 C         140.1575  141.6274  169.2603 C.2     1  UNL1        0.1488
      8 C         139.6319  140.3661  168.6415 C.2     1  UNL1        0.0308
      9 C         139.6606  140.5340  167.1512 C.2     1  UNL1        0.0158
     10 C         139.2622  139.6202  166.0304 C.2     1  UNL1       -0.0033
     11 C         139.4071  140.0715  164.6073 C.2     1  UNL1       -0.0250
     12 C         139.9505  141.4365  164.3050 C.2     1  UNL1       -0.0240
     13 C         140.3489  142.3503  165.4258 C.3     1  UNL1        0.0714
     14 C         140.2040  141.8990  166.8489 C.2     1  UNL1        0.0641
     15 N         140.5110  142.5748  168.1524 N.2     1  UNL1       -0.2390
     16 N         140.4502  142.1615  172.1978 N.1     1  UNL1       -0.1893
     17 C         140.3039  141.8945  170.7291 C.1     1  UNL1        0.1197
     18 C         140.0518  138.2490  164.0663 C.3     1  UNL1        0.0317
     19 C         141.5066  138.5718  163.8951 C.ar    1  UNL1       -0.0218
     20 C         142.4278  138.5330  165.0784 C.ar    1  UNL1       -0.0043
     21 C         143.8826  138.8557  164.9072 C.ar    1  UNL1       -0.0003
     22 C         144.4163  139.2174  163.5527 C.ar    1  UNL1       -0.0000
     23 C         143.4951  139.2562  162.3695 C.ar    1  UNL1       -0.0003
     24 C         142.0402  138.9334  162.5407 C.ar    1  UNL1       -0.0043
@<TRIPOS>BOND
     1    16    17    3
     2    17     7    1
     3     7     8    2
     4     8     9    1
     5     9    10    2
     6    10    11    1
     7    11     1    1
     8     1    18    1
     9    18    19    1
    10    19    20   ar
    11    20    21   ar
    12    21    22   ar
    13    22    23   ar
    14    23    24   ar
    15     1     2    1
    16     2     3    1
    17     3     4    1
    18     4     5    1
    19    11    12    2
    20    12    13    1
    21    13    14    1
    22    14    15    2
    23    15     7    1
    24    14     9    1
    25     5     1    1
    26    24    19   ar
    27     4     6    1
@<TRIPOS>MOLECULE
*****
 24 27 0 0 0
SMALL
GASTEIGER

@<TRIPOS>ATOM
      1 C         140.6719  140.9297  168.6913 C.3     1  UNL1        0.0385
      2 C         141.4534  140.5962  169.9274 C.3     1  UNL1        0.0228
      3 C         140.5032  140.0213  170.9356 C.3     1  UNL1        0.0689
      4 N         139.1343  139.9995  170.3227 N.3     1  UNL1       -0.2972
      5 C         139.2386  140.5609  168.9356 C.3     1  UNL1        0.0729
      6 H         138.4966  140.5685  170.8794 H       1  UNL1        0.1233
      7 C         139.3706  144.3034  163.4300 C.2     1  UNL1        0.1488
      8 C         140.0867  144.4593  164.7387 C.2     1  UNL1        0.0308
      9 C         139.9566  143.1704  165.4948 C.2     1  UNL1        0.0158
     10 C         140.4605  142.7410  166.8408 C.2     1  UNL1       -0.0033
     11 C         140.1679  141.3591  167.3453 C.2     1  UNL1       -0.0250
     12 C         139.3714  140.4065  166.5038 C.2     1  UNL1       -0.0240
     13 C         138.8675  140.8358  165.1579 C.3     1  UNL1        0.0714
     14 C         139.1601  142.2178  164.6534 C.2     1  UNL1        0.0641
     15 N         138.7979  142.9180  163.3772 N.2     1  UNL1       -0.2390
     16 N         139.1266  146.3949  161.2932 N.1     1  UNL1       -0.1893
     17 C         139.2486  145.3491  162.3616 C.1     1  UNL1        0.1197
     18 C         141.9998  141.3882  168.1657 C.3     1  UNL1        0.0317
     19 C         142.7192  140.5733  167.1322 C.ar    1  UNL1       -0.0218
     20 C         142.8857  139.0950  167.3251 C.ar    1  UNL1       -0.0043
     21 C         143.6051  138.2800  166.2916 C.ar    1  UNL1       -0.0003
     22 C         144.1581  138.9432  165.0651 C.ar    1  UNL1       -0.0000
     23 C         143.9917  140.4214  164.8721 C.ar    1  UNL1       -0.0003
     24 C         143.2723  141.2365  165.9056 C.ar    1  UNL1       -0.0043
@<TRIPOS>BOND
     1    16    17    3
     2    17     7    1
     3     7     8    2
     4     8     9    1
     5     9    10    2
     6    10    11    1
     7    11     1    1
     8     1    18    1
     9    18    19    1
    10    19    20   ar
    11    20    21   ar
    12    21    22   ar
    13    22    23   ar
    14    23    24   ar
    15     1     2    1
    16     2     3    1
    17     3     4    1
    18     4     5    1
    19    11    12    2
    20    12    13    1
    21    13    14    1
    22    14    15    2
    23    15     7    1
    24    14     9    1
    25     5     1    1
    26    24    19   ar
    27     4     6    1
@<TRIPOS>MOLECULE
*****
 24 27 0 0 0
SMALL
GASTEIGER

@<TRIPOS>ATOM
      1 C         138.5433  139.7408  163.7847 C.3     1  UNL1        0.0385
      2 C         138.3249  139.2023  162.4018 C.3     1  UNL1        0.0228
      3 C         137.3888  140.1300  161.6857 C.3     1  UNL1        0.0689
      4 N         137.0286  141.2419  162.6258 N.3     1  UNL1       -0.2972
      5 C         137.7422  141.0013  163.9231 C.3     1  UNL1        0.0729
      6 H         136.0206  141.2506  162.7816 H       1  UNL1        0.1233
      7 C         141.2675  142.2420  168.9885 C.2     1  UNL1        0.1488
      8 C         141.2630  142.4283  167.5001 C.2     1  UNL1        0.0308
      9 C         140.3276  141.4156  166.9090 C.2     1  UNL1        0.0158
     10 C         139.9240  141.1281  165.4932 C.2     1  UNL1       -0.0033
     11 C         138.9469  140.0283  165.2005 C.2     1  UNL1       -0.0250
     12 C         138.3733  139.2161  166.3236 C.2     1  UNL1       -0.0240
     13 C         138.7769  139.5036  167.7393 C.3     1  UNL1        0.0714
     14 C         139.7540  140.6033  168.0321 C.2     1  UNL1        0.0641
     15 N         140.3349  141.1141  169.3172 N.2     1  UNL1       -0.2390
     16 N         142.8618  143.8439  170.9614 N.1     1  UNL1       -0.1893
     17 C         142.0646  143.0430  169.9749 C.1     1  UNL1        0.1197
     18 C         139.4288  138.5404  163.9422 C.3     1  UNL1        0.0317
     19 C         140.9195  138.7059  163.9656 C.ar    1  UNL1       -0.0218
     20 C         141.6181  139.3730  162.8179 C.ar    1  UNL1       -0.0043
     21 C         143.1088  139.5385  162.8413 C.ar    1  UNL1       -0.0003
     22 C         143.9008  139.0370  164.0123 C.ar    1  UNL1       -0.0000
     23 C         143.2023  138.3700  165.1599 C.ar    1  UNL1       -0.0003
     24 C         141.7115  138.2044  165.1366 C.ar    1  UNL1       -0.0043
@<TRIPOS>BOND
     1    16    17    3
     2    17     7    1
     3     7     8    2
     4     8     9    1
     5     9    10    2
     6    10    11    1
     7    11     1    1
     8     1    18    1
     9    18    19    1
    10    19    20   ar
    11    20    21   ar
    12    21    22   ar
    13    22    23   ar
    14    23    24   ar
    15     1     2    1
    16     2     3    1
    17     3     4    1
    18     4     5    1
    19    11    12    2
    20    12    13    1
    21    13    14    1
    22    14    15    2
    23    15     7    1
    24    14     9    1
    25     5     1    1
    26    24    19   ar
    27     4     6    1
@<TRIPOS>MOLECULE
*****
 24 27 0 0 0
SMALL
GASTEIGER

@<TRIPOS>ATOM
      1 C         139.8557  141.2660  165.6389 C.3     1  UNL1        0.0385
      2 C         140.1015  140.2455  166.7105 C.3     1  UNL1        0.0228
      3 C         138.8876  139.3693  166.8033 C.3     1  UNL1        0.0689
      4 N         137.8916  139.8483  165.7891 N.3     1  UNL1       -0.2972
      5 C         138.4899  141.0205  165.0695 C.3     1  UNL1        0.0729
      6 H         137.0305  140.1319  166.2567 H       1  UNL1        0.1233
      7 C         141.1068  144.8608  160.5135 C.2     1  UNL1        0.1488
      8 C         141.4345  143.5049  161.0652 C.2     1  UNL1        0.0308
      9 C         140.7384  143.3614  162.3862 C.2     1  UNL1        0.0158
     10 C         140.6968  142.2405  163.3822 C.2     1  UNL1       -0.0033
     11 C         139.8974  142.3868  164.6429 C.2     1  UNL1       -0.0250
     12 C         139.1395  143.6539  164.9076 C.2     1  UNL1       -0.0240
     13 C         139.1811  144.7747  163.9116 C.3     1  UNL1        0.0714
     14 C         139.9806  144.6285  162.6509 C.2     1  UNL1        0.0641
     15 N         140.2082  145.5551  161.4936 N.2     1  UNL1       -0.2390
     16 N         142.0780  145.9861  157.9077 N.1     1  UNL1       -0.1893
     17 C         141.5924  145.4234  159.2106 C.1     1  UNL1        0.1197
     18 C         141.2303  141.7458  166.0001 C.3     1  UNL1        0.0317
     19 C         141.5175  142.2177  167.3946 C.ar    1  UNL1       -0.0218
     20 C         142.8637  141.9693  168.0082 C.ar    1  UNL1       -0.0043
     21 C         143.1509  142.4412  169.4027 C.ar    1  UNL1       -0.0003
     22 C         142.0921  143.1615  170.1838 C.ar    1  UNL1       -0.0000
     23 C         140.7460  143.4099  169.5704 C.ar    1  UNL1       -0.0003
     24 C         140.4587  142.9380  168.1757 C.ar    1  UNL1       -0.0043
@<TRIPOS>BOND
     1    16    17    3
     2    17     7    1
     3     7     8    2
     4     8     9    1
     5     9    10    2
     6    10    11    1
     7    11     1    1
     8     1    18    1
     9    18    19    1
    10    19    20   ar
    11    20    21   ar
    12    21    22   ar
    13    22    23   ar
    14    23    24   ar
    15     1     2    1
    16     2     3    1
    17     3     4    1
    18     4     5    1
    19    11    12    2
    20    12    13    1
    21    13    14    1
    22    14    15    2
    23    15     7    1
    24    14     9    1
    25     5     1    1
    26    24    19   ar
    27     4     6    1
@<TRIPOS>MOLECULE
*****
 24 27 0 0 0
SMALL
GASTEIGER

@<TRIPOS>ATOM
      1 C         139.2170  140.7474  162.9050 C.3     1  UNL1        0.0385
      2 C         139.5196  141.0961  161.4778 C.3     1  UNL1        0.0228
      3 C         138.2574  140.9345  160.6836 C.3     1  UNL1        0.0689
      4 N         137.1748  140.4860  161.6199 N.3     1  UNL1       -0.2972
      5 C         137.7678  140.3704  162.9928 C.3     1  UNL1        0.0729
      6 H         136.8127  139.5802  161.3218 H       1  UNL1        0.1233
      7 C         140.0569  141.1639  169.2199 C.2     1  UNL1        0.1488
      8 C         140.3401  141.9523  167.9756 C.2     1  UNL1        0.0308
      9 C         139.8217  141.1717  166.8043 C.2     1  UNL1        0.0158
     10 C         139.8213  141.4539  165.3311 C.2     1  UNL1       -0.0033
     11 C         139.2174  140.4653  164.3783 C.2     1  UNL1       -0.0250
     12 C         138.6138  139.1945  164.8987 C.2     1  UNL1       -0.0240
     13 C         138.6142  138.9123  166.3719 C.3     1  UNL1        0.0714
     14 C         139.2181  139.9009  167.3247 C.2     1  UNL1        0.0641
     15 N         139.3635  139.8961  168.8176 N.2     1  UNL1       -0.2390
     16 N         140.7548  141.9796  172.0213 N.1     1  UNL1       -0.1893
     17 C         140.4058  141.5718  170.6206 C.1     1  UNL1        0.1197
     18 C         140.6662  141.0655  163.1252 C.3     1  UNL1        0.0317
     19 C         141.7253  140.1533  162.5812 C.ar    1  UNL1       -0.0218
     20 C         143.0329  140.7185  162.1110 C.ar    1  UNL1       -0.0043
     21 C         144.0920  139.8062  161.5669 C.ar    1  UNL1       -0.0003
     22 C         143.8437  138.3287  161.4931 C.ar    1  UNL1       -0.0000
     23 C         142.5362  137.7635  161.9633 C.ar    1  UNL1       -0.0003
     24 C         141.4770  138.6758  162.5074 C.ar    1  UNL1       -0.0043
@<TRIPOS>BOND
     1    16    17    3
     2    17     7    1
     3     7     8    2
     4     8     9    1
     5     9    10    2
     6    10    11    1
     7    11     1    1
     8     1    18    1
     9    18    19    1
    10    19    20   ar
    11    20    21   ar
    12    21    22   ar
    13    22    23   ar
    14    23    24   ar
    15     1     2    1
    16     2     3    1
    17     3     4    1
    18     4     5    1
    19    11    12    2
    20    12    13    1
    21    13    14    1
    22    14    15    2
    23    15     7    1
    24    14     9    1
    25     5     1    1
    26    24    19   ar
    27     4     6    1
@<TRIPOS>MOLECULE
*****
 24 27 0 0 0
SMALL
GASTEIGER

@<TRIPOS>ATOM
      1 C         141.7243  138.4896  163.5363 C.3     1  UNL1        0.0385
      2 C         141.7484  138.2587  162.0544 C.3     1  UNL1        0.0228
      3 C         140.3532  137.9277  161.6142 C.3     1  UNL1        0.0689
      4 N         139.4668  137.9539  162.8239 N.3     1  UNL1       -0.2972
      5 C         140.3143  138.3012  164.0119 C.3     1  UNL1        0.0729
      6 H         139.0392  137.0379  162.9597 H       1  UNL1        0.1233
      7 C         141.4462  140.7351  169.5060 C.2     1  UNL1        0.1488
      8 C         140.7025  140.8462  168.2081 C.2     1  UNL1        0.0308
      9 C         141.3993  139.9824  167.1991 C.2     1  UNL1        0.0158
     10 C         141.1162  139.6998  165.7534 C.2     1  UNL1       -0.0033
     11 C         142.0074  138.7722  164.9820 C.2     1  UNL1       -0.0250
     12 C         143.1819  138.1272  165.6563 C.2     1  UNL1       -0.0240
     13 C         143.4650  138.4097  167.1019 C.3     1  UNL1        0.0714
     14 C         142.5738  139.3373  167.8733 C.2     1  UNL1        0.0641
     15 N         142.6027  139.8026  169.2991 N.2     1  UNL1       -0.2390
     16 N         140.7440  142.1325  172.0661 N.1     1  UNL1       -0.1893
     17 C         141.0951  141.4338  170.7861 C.1     1  UNL1        0.1197
     18 C         143.1935  138.7371  163.3629 C.3     1  UNL1        0.0317
     19 C         143.7038  140.1379  163.1978 C.ar    1  UNL1       -0.0218
     20 C         142.8115  141.1984  162.6237 C.ar    1  UNL1       -0.0043
     21 C         143.3217  142.5992  162.4586 C.ar    1  UNL1       -0.0003
     22 C         144.7242  142.9397  162.8676 C.ar    1  UNL1       -0.0000
     23 C         145.6164  141.8794  163.4417 C.ar    1  UNL1       -0.0003
     24 C         145.1062  140.4784  163.6068 C.ar    1  UNL1       -0.0043
@<TRIPOS>BOND
     1    16    17    3
     2    17     7    1
     3     7     8    2
     4     8     9    1
     5     9    10    2
     6    10    11    1
     7    11     1    1
     8     1    18    1
     9    18    19    1
    10    19    20   ar
    11    20    21   ar
    12    21    22   ar
    13    22    23   ar
    14    23    24   ar
    15     1     2    1
    16     2     3    1
    17     3     4    1
    18     4     5    1
    19    11    12    2
    20    12    13    1
    21    13    14    1
    22    14    15    2
    23    15     7    1
    24    14     9    1
    25     5     1    1
    26    24    19   ar
    27     4     6    1
@<TRIPOS>MOLECULE
*****
 24 27 0 0 0
SMALL
GASTEIGER

@<TRIPOS>ATOM
      1 C         141.5589  139.3620  166.5807 C.3     1  UNL1        0.0385
      2 C         142.3033  139.6749  167.8447 C.3     1  UNL1        0.0228
      3 C         141.2996  140.0614  168.8902 C.3     1  UNL1        0.0689
      4 N         139.9348  139.9874  168.2724 N.3     1  UNL1       -0.2972
      5 C         140.0950  139.5551  166.8450 C.3     1  UNL1        0.0729
      6 H         139.4883  140.9038  168.3085 H       1  UNL1        0.1233
      7 C         139.0218  139.5149  160.7243 C.2     1  UNL1        0.1488
      8 C         139.2155  140.4144  161.9090 C.2     1  UNL1        0.0308
      9 C         139.9335  139.6349  162.9705 C.2     1  UNL1        0.0158
     10 C         140.3919  140.0044  164.3500 C.2     1  UNL1       -0.0033
     11 C         141.1004  138.9925  165.2010 C.2     1  UNL1       -0.0250
     12 C         141.3505  137.6112  164.6724 C.2     1  UNL1       -0.0240
     13 C         140.8921  137.2417  163.2929 C.3     1  UNL1        0.0714
     14 C         140.1836  138.2535  162.4419 C.2     1  UNL1        0.0641
     15 N         139.6201  138.1794  161.0537 N.2     1  UNL1       -0.2390
     16 N         137.6743  140.2566  158.1486 N.1     1  UNL1       -0.1893
     17 C         138.3481  139.8857  159.4365 C.1     1  UNL1        0.1197
     18 C         142.9268  139.0917  166.0280 C.3     1  UNL1        0.0317
     19 C         143.6951  140.1911  165.3564 C.ar    1  UNL1       -0.0218
     20 C         143.4123  141.6231  165.7020 C.ar    1  UNL1       -0.0043
     21 C         144.1806  142.7226  165.0304 C.ar    1  UNL1       -0.0003
     22 C         145.2316  142.3900  164.0132 C.ar    1  UNL1       -0.0000
     23 C         145.5144  140.9580  163.6676 C.ar    1  UNL1       -0.0003
     24 C         144.7462  139.8585  164.3392 C.ar    1  UNL1       -0.0043
@<TRIPOS>BOND
     1    16    17    3
     2    17     7    1
     3     7     8    2
     4     8     9    1
     5     9    10    2
     6    10    11    1
     7    11     1    1
     8     1    18    1
     9    18    19    1
    10    19    20   ar
    11    20    21   ar
    12    21    22   ar
    13    22    23   ar
    14    23    24   ar
    15     1     2    1
    16     2     3    1
    17     3     4    1
    18     4     5    1
    19    11    12    2
    20    12    13    1
    21    13    14    1
    22    14    15    2
    23    15     7    1
    24    14     9    1
    25     5     1    1
    26    24    19   ar
    27     4     6    1
