@<TRIPOS>MOLECULE
*****
 33 35 0 0 0
SMALL
GASTEIGER

@<TRIPOS>ATOM
      1 C         139.5268  138.3296  160.4740 C.3     1  UNL1        0.1913
      2 S         139.6069  138.8698  161.8711 S.O2    1  UNL1        0.0457
      3 O         140.7546  139.7466  161.4663 O.2     1  UNL1       -0.1572
      4 O         138.4591  137.9930  162.2759 O.2     1  UNL1       -0.1572
      5 N         139.6870  139.4100  163.2682 N.3     1  UNL1       -0.1559
      6 C         138.8448  138.8090  164.3541 C.3     1  UNL1        0.1168
      7 C         138.9249  139.3492  165.7511 C.3     1  UNL1        0.1099
      8 N         139.8472  140.4905  166.0622 N.pl3   1  UNL1       -0.3045
      9 C         140.6894  141.0916  164.9762 C.3     1  UNL1        0.1099
     10 C         140.6093  140.5513  163.5792 C.3     1  UNL1        0.1168
     11 C         139.9274  141.0307  167.4593 C.ar    1  UNL1        0.0481
     12 C         140.4811  142.4034  167.7020 C.ar    1  UNL1        0.0168
     13 C         140.5612  142.9437  169.0991 C.ar    1  UNL1        0.0309
     14 C         140.0876  142.1111  170.2534 C.ar    1  UNL1        0.1402
     15 F         140.1676  142.6513  171.6505 F       1  UNL1       -0.2042
     16 C         139.5338  140.7383  170.0107 C.ar    1  UNL1        0.0309
     17 C         139.4537  140.1982  168.6136 C.ar    1  UNL1        0.0168
     18 C         139.0501  139.2088  159.3561 C.3     1  UNL1        0.1293
     19 N         139.6532  139.0772  157.9891 N.am    1  UNL1       -0.1645
     20 O         138.7683  139.0534  156.7780 O.3     1  UNL1       -0.2914
     21 C         141.1411  138.9693  157.8329 C.2     1  UNL1        0.3268
     22 O         141.7442  138.8377  156.4658 O.2     1  UNL1       -0.2627
     23 H         137.8415  139.1326  157.0532 H       1  UNL1        0.2417
     24 C         137.9702  140.2198  159.6053 C.3     1  UNL1        0.0318
     25 C         138.7827  142.4491  158.5469 C.3     1  UNL1        0.0080
     26 C         138.3198  141.6719  159.7435 C.3     1  UNL1        0.0604
     27 C         138.2064  142.3469  161.0782 C.ar    1  UNL1        0.1390
     28 N         137.4441  141.6882  162.1895 N.ar    1  UNL1       -0.2268
     29 C         137.3307  142.3633  163.5242 C.ar    1  UNL1        0.1314
     30 C         137.9797  143.6970  163.7476 C.ar    1  UNL1        0.1783
     31 F         137.8664  144.3721  165.0823 F       1  UNL1       -0.2009
     32 C         138.7421  144.3557  162.6364 C.ar    1  UNL1        0.1314
     33 N         138.8554  143.6806  161.3016 N.ar    1  UNL1       -0.2268
@<TRIPOS>BOND
     1    26    25    1
     2    26    24    1
     3    18    24    1
     4    18     1    1
     5     1     2    1
     6     2     3    2
     7     2     4    2
     8     2     5    1
     9     5     6    1
    10     6     7    1
    11     7     8    1
    12     8    11    1
    13    11    12   ar
    14    12    13   ar
    15    13    14   ar
    16    14    15    1
    17    14    16   ar
    18    16    17   ar
    19     8     9    1
    20     9    10    1
    21    18    19    1
    22    19    20    1
    23    19    21   am
    24    21    22    2
    25    26    27    1
    26    27    28   ar
    27    28    29   ar
    28    29    30   ar
    29    30    31    1
    30    30    32   ar
    31    32    33   ar
    32    10     5    1
    33    33    27   ar
    34    17    11   ar
    35    20    23    1
@<TRIPOS>MOLECULE
*****
 33 35 0 0 0
SMALL
GASTEIGER

@<TRIPOS>ATOM
      1 C         137.3823  139.8787  160.7074 C.3     1  UNL1        0.1913
      2 S         137.9191  140.1464  162.0822 S.O2    1  UNL1        0.0457
      3 O         137.8210  138.6849  162.4051 O.2     1  UNL1       -0.1572
      4 O         138.0172  141.6079  161.7594 O.2     1  UNL1       -0.1572
      5 N         138.4560  140.4141  163.4571 N.3     1  UNL1       -0.1559
      6 C         138.4221  139.3352  164.4986 C.3     1  UNL1        0.1168
      7 C         138.9590  139.6029  165.8734 C.3     1  UNL1        0.1099
      8 N         139.5298  140.9494  166.2067 N.pl3   1  UNL1       -0.3045
      9 C         139.5637  142.0283  165.1651 C.3     1  UNL1        0.1099
     10 C         139.0268  141.7606  163.7903 C.3     1  UNL1        0.1168
     11 C         140.0667  141.2171  167.5815 C.ar    1  UNL1        0.0481
     12 C         139.9690  140.1621  168.6433 C.ar    1  UNL1        0.0168
     13 C         140.5059  140.4297  170.0182 C.ar    1  UNL1        0.0309
     14 C         141.1404  141.7524  170.3312 C.ar    1  UNL1        0.1402
     15 F         141.6773  142.0201  171.7060 F       1  UNL1       -0.2042
     16 C         141.2381  142.8074  169.2693 C.ar    1  UNL1        0.0309
     17 C         140.7012  142.5397  167.8945 C.ar    1  UNL1        0.0168
     18 C         138.3114  139.8597  159.5300 C.3     1  UNL1        0.1293
     19 N         138.1182  140.8344  158.4064 N.am    1  UNL1       -0.1645
     20 O         137.2698  140.4609  157.2270 O.3     1  UNL1       -0.2914
     21 C         138.7733  142.1827  158.4620 C.2     1  UNL1        0.3268
     22 O         138.5801  143.1574  157.3383 O.2     1  UNL1       -0.2627
     23 H         136.9244  139.5627  157.3487 H       1  UNL1        0.2417
     24 C         139.4337  138.8660  159.4762 C.3     1  UNL1        0.0318
     25 C         141.7566  139.9526  159.0592 C.3     1  UNL1        0.0080
     26 C         140.7973  139.2472  159.9716 C.3     1  UNL1        0.0604
     27 C         141.2017  138.9230  161.3791 C.ar    1  UNL1        0.1390
     28 N         141.8916  139.9572  162.2184 N.ar    1  UNL1       -0.2268
     29 C         142.2960  139.6330  163.6260 C.ar    1  UNL1        0.1314
     30 C         142.0104  138.2745  164.1944 C.ar    1  UNL1        0.1783
     31 F         142.4148  137.9502  165.6019 F       1  UNL1       -0.2009
     32 C         141.3205  137.2402  163.3551 C.ar    1  UNL1        0.1314
     33 N         140.9161  137.5645  161.9474 N.ar    1  UNL1       -0.2268
@<TRIPOS>BOND
     1    26    25    1
     2    26    24    1
     3    18    24    1
     4    18     1    1
     5     1     2    1
     6     2     3    2
     7     2     4    2
     8     2     5    1
     9     5     6    1
    10     6     7    1
    11     7     8    1
    12     8    11    1
    13    11    12   ar
    14    12    13   ar
    15    13    14   ar
    16    14    15    1
    17    14    16   ar
    18    16    17   ar
    19     8     9    1
    20     9    10    1
    21    18    19    1
    22    19    20    1
    23    19    21   am
    24    21    22    2
    25    26    27    1
    26    27    28   ar
    27    28    29   ar
    28    29    30   ar
    29    30    31    1
    30    30    32   ar
    31    32    33   ar
    32    10     5    1
    33    33    27   ar
    34    17    11   ar
    35    20    23    1
@<TRIPOS>MOLECULE
*****
 33 35 0 0 0
SMALL
GASTEIGER

@<TRIPOS>ATOM
      1 C         140.3258  142.2917  160.1651 C.3     1  UNL1        0.1913
      2 S         140.6216  142.0573  161.6168 S.O2    1  UNL1        0.0457
      3 O         140.7938  140.5922  161.3452 O.2     1  UNL1       -0.1572
      4 O         140.4494  143.5224  161.8885 O.2     1  UNL1       -0.1572
      5 N         140.9174  141.8228  163.0686 N.3     1  UNL1       -0.1559
      6 C         141.3274  140.4591  163.5397 C.3     1  UNL1        0.1168
      7 C         141.6232  140.2246  164.9915 C.3     1  UNL1        0.1099
      8 N         141.5090  141.3540  165.9720 N.pl3   1  UNL1       -0.3045
      9 C         141.0991  142.7178  165.5009 C.3     1  UNL1        0.1099
     10 C         140.8033  142.9522  164.0492 C.3     1  UNL1        0.1168
     11 C         141.8048  141.1195  167.4238 C.ar    1  UNL1        0.0481
     12 C         142.8725  141.9187  168.1103 C.ar    1  UNL1        0.0168
     13 C         143.1683  141.6842  169.5621 C.ar    1  UNL1        0.0309
     14 C         142.3964  140.6506  170.3273 C.ar    1  UNL1        0.1402
     15 F         142.6921  140.4161  171.7790 F       1  UNL1       -0.2042
     16 C         141.3286  139.8513  169.6408 C.ar    1  UNL1        0.0309
     17 C         141.0329  140.0858  168.1891 C.ar    1  UNL1        0.0168
     18 C         141.3255  143.0017  159.3011 C.3     1  UNL1        0.1293
     19 N         141.1611  144.4641  159.0105 N.am    1  UNL1       -0.1645
     20 O         141.7977  145.4834  159.9082 O.3     1  UNL1       -0.2914
     21 C         140.3602  144.9071  157.8221 C.2     1  UNL1        0.3268
     22 O         140.1958  146.3696  157.5315 O.2     1  UNL1       -0.2627
     23 H         142.2747  145.0324  160.6223 H       1  UNL1        0.2417
     24 C         142.4897  142.2493  158.7278 C.3     1  UNL1        0.0318
     25 C         145.0299  142.6162  158.3236 C.3     1  UNL1        0.0080
     26 C         143.8706  142.4806  159.2659 C.3     1  UNL1        0.0604
     27 C         144.0923  142.5764  160.7463 C.ar    1  UNL1        0.1390
     28 N         144.5275  141.3668  161.5193 N.ar    1  UNL1       -0.2268
     29 C         144.7492  141.4626  162.9997 C.ar    1  UNL1        0.1314
     30 C         144.5357  142.7679  163.7072 C.ar    1  UNL1        0.1783
     31 F         144.7574  142.8637  165.1876 F       1  UNL1       -0.2009
     32 C         144.1005  143.9775  162.9342 C.ar    1  UNL1        0.1314
     33 N         143.8788  143.8817  161.4538 N.ar    1  UNL1       -0.2268
@<TRIPOS>BOND
     1    26    25    1
     2    26    24    1
     3    18    24    1
     4    18     1    1
     5     1     2    1
     6     2     3    2
     7     2     4    2
     8     2     5    1
     9     5     6    1
    10     6     7    1
    11     7     8    1
    12     8    11    1
    13    11    12   ar
    14    12    13   ar
    15    13    14   ar
    16    14    15    1
    17    14    16   ar
    18    16    17   ar
    19     8     9    1
    20     9    10    1
    21    18    19    1
    22    19    20    1
    23    19    21   am
    24    21    22    2
    25    26    27    1
    26    27    28   ar
    27    28    29   ar
    28    29    30   ar
    29    30    31    1
    30    30    32   ar
    31    32    33   ar
    32    10     5    1
    33    33    27   ar
    34    17    11   ar
    35    20    23    1
@<TRIPOS>MOLECULE
*****
 33 35 0 0 0
SMALL
GASTEIGER

@<TRIPOS>ATOM
      1 C         140.5806  145.7067  160.6311 C.3     1  UNL1        0.1913
      2 S         140.5234  145.0067  161.9565 S.O2    1  UNL1        0.0457
      3 O         142.0059  145.1757  162.1097 O.2     1  UNL1       -0.1572
      4 O         139.0409  144.8377  161.8032 O.2     1  UNL1       -0.1572
      5 N         140.4663  144.3067  163.2820 N.3     1  UNL1       -0.1559
      6 C         141.6671  143.5662  163.7915 C.3     1  UNL1        0.1168
      7 C         141.6099  142.8663  165.1169 C.3     1  UNL1        0.1099
      8 N         140.3518  142.9068  165.9328 N.pl3   1  UNL1       -0.3045
      9 C         139.1510  143.6474  165.4233 C.3     1  UNL1        0.1099
     10 C         139.2082  144.3473  164.0979 C.3     1  UNL1        0.1168
     11 C         140.2947  142.2069  167.2583 C.ar    1  UNL1        0.0481
     12 C         140.5462  142.9735  168.5228 C.ar    1  UNL1        0.0168
     13 C         140.4890  142.2735  169.8482 C.ar    1  UNL1        0.0309
     14 C         140.1803  140.8069  169.9092 C.ar    1  UNL1        0.1402
     15 F         140.1232  140.1069  171.2345 F       1  UNL1       -0.2042
     16 C         139.9288  140.0402  168.6446 C.ar    1  UNL1        0.0309
     17 C         139.9860  140.7402  167.3192 C.ar    1  UNL1        0.0168
     18 C         141.0551  144.9699  159.4137 C.3     1  UNL1        0.1293
     19 N         141.2887  145.7122  158.1314 N.am    1  UNL1       -0.1645
     20 O         142.6070  146.3833  157.8826 O.3     1  UNL1       -0.2914
     21 C         140.2040  145.7835  157.0978 C.2     1  UNL1        0.3268
     22 O         140.4376  146.5259  155.8154 O.2     1  UNL1       -0.2627
     23 H         143.1907  146.2415  158.6442 H       1  UNL1        0.2417
     24 C         141.2960  143.4907  159.4786 C.3     1  UNL1        0.0318
     25 C         143.5123  143.1034  158.1794 C.3     1  UNL1        0.0080
     26 C         142.6966  142.9561  159.4296 C.3     1  UNL1        0.0604
     27 C         143.2815  142.2742  160.6308 C.ar    1  UNL1        0.1390
     28 N         144.5337  142.8082  161.2607 N.ar    1  UNL1       -0.2268
     29 C         145.1187  142.1263  162.4619 C.ar    1  UNL1        0.1314
     30 C         144.4514  140.9103  163.0331 C.ar    1  UNL1        0.1783
     31 F         145.0363  140.2284  164.2343 F       1  UNL1       -0.2009
     32 C         143.1992  140.3763  162.4032 C.ar    1  UNL1        0.1314
     33 N         142.6142  141.0583  161.2020 N.ar    1  UNL1       -0.2268
@<TRIPOS>BOND
     1    26    25    1
     2    26    24    1
     3    18    24    1
     4    18     1    1
     5     1     2    1
     6     2     3    2
     7     2     4    2
     8     2     5    1
     9     5     6    1
    10     6     7    1
    11     7     8    1
    12     8    11    1
    13    11    12   ar
    14    12    13   ar
    15    13    14   ar
    16    14    15    1
    17    14    16   ar
    18    16    17   ar
    19     8     9    1
    20     9    10    1
    21    18    19    1
    22    19    20    1
    23    19    21   am
    24    21    22    2
    25    26    27    1
    26    27    28   ar
    27    28    29   ar
    28    29    30   ar
    29    30    31    1
    30    30    32   ar
    31    32    33   ar
    32    10     5    1
    33    33    27   ar
    34    17    11   ar
    35    20    23    1
@<TRIPOS>MOLECULE
*****
 33 35 0 0 0
SMALL
GASTEIGER

@<TRIPOS>ATOM
      1 C         139.2053  142.5544  159.8477 C.3     1  UNL1        0.1913
      2 S         139.6309  142.5576  161.2860 S.O2    1  UNL1        0.0457
      3 O         140.8192  143.4019  160.9324 O.2     1  UNL1       -0.1572
      4 O         138.4426  141.7133  161.6395 O.2     1  UNL1       -0.1572
      5 N         140.0566  142.5608  162.7243 N.3     1  UNL1       -0.1559
      6 C         140.8121  141.3928  163.2855 C.3     1  UNL1        0.1168
      7 C         141.2377  141.3961  164.7238 C.3     1  UNL1        0.1099
      8 N         140.9079  142.5674  165.6009 N.pl3   1  UNL1       -0.3045
      9 C         140.1525  143.7354  165.0398 C.3     1  UNL1        0.1099
     10 C         139.7268  143.7321  163.6015 C.3     1  UNL1        0.1168
     11 C         141.3336  142.5706  167.0393 C.ar    1  UNL1        0.0481
     12 C         142.7242  142.1484  167.4109 C.ar    1  UNL1        0.0168
     13 C         143.1499  142.1516  168.8492 C.ar    1  UNL1        0.0309
     14 C         142.1849  142.5770  169.9160 C.ar    1  UNL1        0.1402
     15 F         142.6106  142.5802  171.3543 F       1  UNL1       -0.2042
     16 C         140.7943  142.9992  169.5444 C.ar    1  UNL1        0.0309
     17 C         140.3687  142.9960  168.1061 C.ar    1  UNL1        0.0168
     18 C         139.1759  141.2679  159.0770 C.3     1  UNL1        0.1293
     19 N         137.8648  140.6858  158.6388 N.am    1  UNL1       -0.1645
     20 O         137.0845  139.8081  159.5719 O.3     1  UNL1       -0.2914
     21 C         137.3339  140.9815  157.2674 C.2     1  UNL1        0.3268
     22 O         136.0227  140.3994  156.8292 O.2     1  UNL1       -0.2627
     23 H         137.5647  139.7197  160.4101 H       1  UNL1        0.2417
     24 C         140.4579  140.5633  158.7446 C.3     1  UNL1        0.0318
     25 C         140.7681  138.1361  157.8716 C.3     1  UNL1        0.0080
     26 C         140.5976  139.0942  159.0131 C.3     1  UNL1        0.0604
     27 C         140.5670  138.5832  160.4230 C.ar    1  UNL1        0.1390
     28 N         141.8504  138.3218  161.1541 N.ar    1  UNL1       -0.2268
     29 C         141.8198  137.8108  162.5640 C.ar    1  UNL1        0.1314
     30 C         140.5057  137.5611  163.2429 C.ar    1  UNL1        0.1783
     31 F         140.4750  137.0501  164.6528 F       1  UNL1       -0.2009
     32 C         139.2222  137.8225  162.5118 C.ar    1  UNL1        0.1314
     33 N         139.2529  138.3335  161.1018 N.ar    1  UNL1       -0.2268
@<TRIPOS>BOND
     1    26    25    1
     2    26    24    1
     3    18    24    1
     4    18     1    1
     5     1     2    1
     6     2     3    2
     7     2     4    2
     8     2     5    1
     9     5     6    1
    10     6     7    1
    11     7     8    1
    12     8    11    1
    13    11    12   ar
    14    12    13   ar
    15    13    14   ar
    16    14    15    1
    17    14    16   ar
    18    16    17   ar
    19     8     9    1
    20     9    10    1
    21    18    19    1
    22    19    20    1
    23    19    21   am
    24    21    22    2
    25    26    27    1
    26    27    28   ar
    27    28    29   ar
    28    29    30   ar
    29    30    31    1
    30    30    32   ar
    31    32    33   ar
    32    10     5    1
    33    33    27   ar
    34    17    11   ar
    35    20    23    1
@<TRIPOS>MOLECULE
*****
 33 35 0 0 0
SMALL
GASTEIGER

@<TRIPOS>ATOM
      1 C         139.0469  142.7050  159.7571 C.3     1  UNL1        0.1913
      2 S         139.2511  142.4946  161.2281 S.O2    1  UNL1        0.0457
      3 O         138.8366  143.9125  161.4884 O.2     1  UNL1       -0.1572
      4 O         139.6656  141.0767  160.9678 O.2     1  UNL1       -0.1572
      5 N         139.4552  142.2842  162.6992 N.3     1  UNL1       -0.1559
      6 C         139.8495  140.9324  163.2160 C.3     1  UNL1        0.1168
      7 C         140.0536  140.7221  164.6870 C.3     1  UNL1        0.1099
      8 N         139.8635  141.8637  165.6414 N.pl3   1  UNL1       -0.3045
      9 C         139.4693  143.2155  165.1246 C.3     1  UNL1        0.1099
     10 C         139.2651  143.4258  163.6536 C.3     1  UNL1        0.1168
     11 C         140.0677  141.6533  167.1125 C.ar    1  UNL1        0.0481
     12 C         139.7351  140.3294  167.7341 C.ar    1  UNL1        0.0168
     13 C         139.9392  140.1190  169.2052 C.ar    1  UNL1        0.0309
     14 C         140.4760  141.2327  170.0547 C.ar    1  UNL1        0.1402
     15 F         140.6802  141.0224  171.5257 F       1  UNL1       -0.2042
     16 C         140.8086  142.5567  169.4330 C.ar    1  UNL1        0.0309
     17 C         140.6045  142.7670  167.9620 C.ar    1  UNL1        0.0168
     18 C         140.1100  143.3790  158.9412 C.3     1  UNL1        0.1293
     19 N         139.9820  144.8333  158.5970 N.am    1  UNL1       -0.1645
     20 O         139.8834  145.8567  159.6893 O.3     1  UNL1       -0.2914
     21 C         139.9527  145.2644  157.1606 C.2     1  UNL1        0.3268
     22 O         139.8248  146.7188  156.8165 O.2     1  UNL1       -0.2627
     23 H         139.9175  145.4136  160.5516 H       1  UNL1        0.2417
     24 C         141.3010  142.5985  158.4694 C.3     1  UNL1        0.0318
     25 C         143.8746  142.8601  158.2287 C.3     1  UNL1        0.0080
     26 C         142.6462  142.8352  159.0893 C.3     1  UNL1        0.0604
     27 C         142.7631  143.0471  160.5696 C.ar    1  UNL1        0.1390
     28 N         142.5108  144.4048  161.1552 N.ar    1  UNL1       -0.2268
     29 C         142.6276  144.6166  162.6355 C.ar    1  UNL1        0.1314
     30 C         142.9968  143.4707  163.5304 C.ar    1  UNL1        0.1783
     31 F         143.1137  143.6825  165.0107 F       1  UNL1       -0.2009
     32 C         143.2492  142.1130  162.9448 C.ar    1  UNL1        0.1314
     33 N         143.1323  141.9012  161.4643 N.ar    1  UNL1       -0.2268
@<TRIPOS>BOND
     1    26    25    1
     2    26    24    1
     3    18    24    1
     4    18     1    1
     5     1     2    1
     6     2     3    2
     7     2     4    2
     8     2     5    1
     9     5     6    1
    10     6     7    1
    11     7     8    1
    12     8    11    1
    13    11    12   ar
    14    12    13   ar
    15    13    14   ar
    16    14    15    1
    17    14    16   ar
    18    16    17   ar
    19     8     9    1
    20     9    10    1
    21    18    19    1
    22    19    20    1
    23    19    21   am
    24    21    22    2
    25    26    27    1
    26    27    28   ar
    27    28    29   ar
    28    29    30   ar
    29    30    31    1
    30    30    32   ar
    31    32    33   ar
    32    10     5    1
    33    33    27   ar
    34    17    11   ar
    35    20    23    1
@<TRIPOS>MOLECULE
*****
 33 35 0 0 0
SMALL
GASTEIGER

@<TRIPOS>ATOM
      1 C         142.1271  143.2530  160.1259 C.3     1  UNL1        0.1913
      2 S         141.9265  142.9125  161.5729 S.O2    1  UNL1        0.0457
      3 O         141.6323  144.3528  161.8710 O.2     1  UNL1       -0.1572
      4 O         142.2208  141.4722  161.2748 O.2     1  UNL1       -0.1572
      5 N         141.7259  142.5721  163.0200 N.3     1  UNL1       -0.1559
      6 C         142.0324  141.1896  163.5147 C.3     1  UNL1        0.1168
      7 C         141.8319  140.8493  164.9617 C.3     1  UNL1        0.1099
      8 N         141.3248  141.8914  165.9140 N.pl3   1  UNL1       -0.3045
      9 C         141.0183  143.2739  165.4193 C.3     1  UNL1        0.1099
     10 C         141.2189  143.6142  163.9723 C.3     1  UNL1        0.1168
     11 C         141.1242  141.5510  167.3611 C.ar    1  UNL1        0.0481
     12 C         140.5425  142.5684  168.2972 C.ar    1  UNL1        0.0168
     13 C         140.3419  142.2280  169.7443 C.ar    1  UNL1        0.0309
     14 C         140.7231  140.8702  170.2551 C.ar    1  UNL1        0.1402
     15 F         140.5226  140.5297  171.7021 F       1  UNL1       -0.2042
     16 C         141.3049  139.8527  169.3189 C.ar    1  UNL1        0.0309
     17 C         141.5054  140.1932  167.8719 C.ar    1  UNL1        0.0168
     18 C         140.9413  143.4056  159.2200 C.3     1  UNL1        0.1293
     19 N         140.3850  144.7693  158.9360 N.am    1  UNL1       -0.1645
     20 O         139.7819  145.5793  160.0453 O.3     1  UNL1       -0.2914
     21 C         140.4317  145.3232  157.5428 C.2     1  UNL1        0.3268
     22 O         139.8754  146.6870  157.2589 O.2     1  UNL1       -0.2627
     23 H         139.8313  145.0788  160.8747 H       1  UNL1        0.2417
     24 C         140.3118  142.1943  158.5980 C.3     1  UNL1        0.0318
     25 C         138.0134  141.0725  158.1410 C.3     1  UNL1        0.0080
     26 C         138.9863  141.6989  159.0956 C.3     1  UNL1        0.0604
     27 C         138.6337  141.8298  160.5476 C.ar    1  UNL1        0.1390
     28 N         138.8015  140.6579  161.4688 N.ar    1  UNL1       -0.2268
     29 C         138.4489  140.7888  162.9208 C.ar    1  UNL1        0.1314
     30 C         137.9285  142.0916  163.4518 C.ar    1  UNL1        0.1783
     31 F         137.5759  142.2225  164.9038 F       1  UNL1       -0.2009
     32 C         137.7608  143.2636  162.5307 C.ar    1  UNL1        0.1314
     33 N         138.1134  143.1326  161.0785 N.ar    1  UNL1       -0.2268
@<TRIPOS>BOND
     1    26    25    1
     2    26    24    1
     3    18    24    1
     4    18     1    1
     5     1     2    1
     6     2     3    2
     7     2     4    2
     8     2     5    1
     9     5     6    1
    10     6     7    1
    11     7     8    1
    12     8    11    1
    13    11    12   ar
    14    12    13   ar
    15    13    14   ar
    16    14    15    1
    17    14    16   ar
    18    16    17   ar
    19     8     9    1
    20     9    10    1
    21    18    19    1
    22    19    20    1
    23    19    21   am
    24    21    22    2
    25    26    27    1
    26    27    28   ar
    27    28    29   ar
    28    29    30   ar
    29    30    31    1
    30    30    32   ar
    31    32    33   ar
    32    10     5    1
    33    33    27   ar
    34    17    11   ar
    35    20    23    1
@<TRIPOS>MOLECULE
*****
 33 35 0 0 0
SMALL
GASTEIGER

@<TRIPOS>ATOM
      1 C         142.2426  141.2420  165.6209 C.3     1  UNL1        0.1913
      2 S         142.0713  140.6450  164.2556 S.O2    1  UNL1        0.0457
      3 O         142.9922  139.5221  164.6311 O.2     1  UNL1       -0.1572
      4 O         141.1505  141.7679  163.8800 O.2     1  UNL1       -0.1572
      5 N         141.9001  140.0479  162.8902 N.3     1  UNL1       -0.1559
      6 C         142.3555  138.6439  162.6231 C.3     1  UNL1        0.1168
      7 C         142.1843  138.0469  161.2578 C.3     1  UNL1        0.1099
      8 N         141.5577  138.8539  160.1595 N.pl3   1  UNL1       -0.3045
      9 C         141.1024  140.2579  160.4265 C.3     1  UNL1        0.1099
     10 C         141.2736  140.8549  161.7919 C.3     1  UNL1        0.1168
     11 C         141.3865  138.2568  158.7941 C.ar    1  UNL1        0.0481
     12 C         140.0427  138.2809  158.1281 C.ar    1  UNL1        0.0168
     13 C         139.8715  137.6838  156.7627 C.ar    1  UNL1        0.0309
     14 C         141.0442  137.0626  156.0634 C.ar    1  UNL1        0.1402
     15 F         140.8730  136.4655  154.6980 F       1  UNL1       -0.2042
     16 C         142.3880  137.0385  156.7294 C.ar    1  UNL1        0.0309
     17 C         142.5592  137.6356  158.0948 C.ar    1  UNL1        0.0168
     18 C         141.1182  141.1823  166.6120 C.3     1  UNL1        0.1293
     19 N         140.5532  142.4493  167.1824 N.am    1  UNL1       -0.1645
     20 O         139.9136  143.4597  166.2768 O.3     1  UNL1       -0.2914
     21 C         140.6277  142.7060  168.6584 C.2     1  UNL1        0.3268
     22 O         140.0626  143.9731  169.2287 O.2     1  UNL1       -0.2627
     23 H         139.9483  143.1412  165.3612 H       1  UNL1        0.2417
     24 C         140.5588  139.8556  167.0327 C.3     1  UNL1        0.0318
     25 C         138.1292  139.2083  167.6868 C.3     1  UNL1        0.0080
     26 C         139.1655  139.4686  166.6340 C.3     1  UNL1        0.0604
     27 C         138.8085  139.3421  165.1826 C.ar    1  UNL1        0.1390
     28 N         139.1135  138.0732  164.4431 N.ar    1  UNL1       -0.2268
     29 C         138.7565  137.9466  162.9918 C.ar    1  UNL1        0.1314
     30 C         138.0945  139.0890  162.2798 C.ar    1  UNL1        0.1783
     31 F         137.7375  138.9624  160.8285 F       1  UNL1       -0.2009
     32 C         137.7896  140.3579  163.0193 C.ar    1  UNL1        0.1314
     33 N         138.1466  140.4844  164.4708 N.ar    1  UNL1       -0.2268
@<TRIPOS>BOND
     1    26    25    1
     2    26    24    1
     3    18    24    1
     4    18     1    1
     5     1     2    1
     6     2     3    2
     7     2     4    2
     8     2     5    1
     9     5     6    1
    10     6     7    1
    11     7     8    1
    12     8    11    1
    13    11    12   ar
    14    12    13   ar
    15    13    14   ar
    16    14    15    1
    17    14    16   ar
    18    16    17   ar
    19     8     9    1
    20     9    10    1
    21    18    19    1
    22    19    20    1
    23    19    21   am
    24    21    22    2
    25    26    27    1
    26    27    28   ar
    27    28    29   ar
    28    29    30   ar
    29    30    31    1
    30    30    32   ar
    31    32    33   ar
    32    10     5    1
    33    33    27   ar
    34    17    11   ar
    35    20    23    1
@<TRIPOS>MOLECULE
*****
 33 35 0 0 0
SMALL
GASTEIGER

@<TRIPOS>ATOM
      1 C         140.3596  145.6156  160.6855 C.3     1  UNL1        0.1913
      2 S         140.5881  144.9503  162.0103 S.O2    1  UNL1        0.0457
      3 O         142.0034  144.6492  161.6149 O.2     1  UNL1       -0.1572
      4 O         139.1729  145.2514  162.4057 O.2     1  UNL1       -0.1572
      5 N         140.8168  144.2849  163.3351 N.3     1  UNL1       -0.1559
      6 C         142.1735  143.7457  163.6793 C.3     1  UNL1        0.1168
      7 C         142.4021  143.0804  165.0041 C.3     1  UNL1        0.1099
      8 N         141.2739  142.9542  165.9846 N.pl3   1  UNL1       -0.3045
      9 C         139.9172  143.4934  165.6403 C.3     1  UNL1        0.1099
     10 C         139.6886  144.1588  164.3156 C.3     1  UNL1        0.1168
     11 C         141.5025  142.2888  167.3094 C.ar    1  UNL1        0.0481
     12 C         140.3474  141.6951  168.0598 C.ar    1  UNL1        0.0168
     13 C         140.5760  141.0297  169.3846 C.ar    1  UNL1        0.0309
     14 C         141.9598  140.9581  169.9590 C.ar    1  UNL1        0.1402
     15 F         142.1885  140.2928  171.2837 F       1  UNL1       -0.2042
     16 C         143.1150  141.5519  169.2086 C.ar    1  UNL1        0.0309
     17 C         142.8864  142.2172  167.8838 C.ar    1  UNL1        0.0168
     18 C         140.3389  144.7970  159.4287 C.3     1  UNL1        0.1293
     19 N         141.1269  145.2403  158.2319 N.am    1  UNL1       -0.1645
     20 O         142.6232  145.1340  158.2377 O.3     1  UNL1       -0.2914
     21 C         140.4188  145.7900  157.0292 C.2     1  UNL1        0.3268
     22 O         141.2068  146.2333  155.8324 O.2     1  UNL1       -0.2627
     23 H         142.9176  144.7616  159.0835 H       1  UNL1        0.2417
     24 C         139.5302  143.5351  159.3688 C.3     1  UNL1        0.0318
     25 C         141.2022  141.5502  159.2469 C.3     1  UNL1        0.0080
     26 C         140.0810  142.2634  159.9429 C.3     1  UNL1        0.0604
     27 C         139.5107  141.7049  161.2128 C.ar    1  UNL1        0.1390
     28 N         138.0691  141.9398  161.5545 N.ar    1  UNL1       -0.2268
     29 C         137.4987  141.3813  162.8244 C.ar    1  UNL1        0.1314
     30 C         138.3700  140.5880  163.7528 C.ar    1  UNL1        0.1783
     31 F         137.7996  140.0295  165.0227 F       1  UNL1       -0.2009
     32 C         139.8115  140.3532  163.4110 C.ar    1  UNL1        0.1314
     33 N         140.3819  140.9117  162.1410 N.ar    1  UNL1       -0.2268
@<TRIPOS>BOND
     1    26    25    1
     2    26    24    1
     3    18    24    1
     4    18     1    1
     5     1     2    1
     6     2     3    2
     7     2     4    2
     8     2     5    1
     9     5     6    1
    10     6     7    1
    11     7     8    1
    12     8    11    1
    13    11    12   ar
    14    12    13   ar
    15    13    14   ar
    16    14    15    1
    17    14    16   ar
    18    16    17   ar
    19     8     9    1
    20     9    10    1
    21    18    19    1
    22    19    20    1
    23    19    21   am
    24    21    22    2
    25    26    27    1
    26    27    28   ar
    27    28    29   ar
    28    29    30   ar
    29    30    31    1
    30    30    32   ar
    31    32    33   ar
    32    10     5    1
    33    33    27   ar
    34    17    11   ar
    35    20    23    1
