@<TRIPOS>MOLECULE
*****
 24 26 0 0 0
SMALL
GASTEIGER

@<TRIPOS>ATOM
      1 C         137.5813  142.7143  162.9932 C.3     1  UNL1        0.0691
      2 C         138.1620  143.4402  164.1704 C.3     1  UNL1        0.0202
      3 C         138.0874  144.5472  165.1798 C.3     1  UNL1        0.0062
      4 C         139.2425  143.5904  165.2000 C.3     1  UNL1        0.0268
      5 C         140.5332  143.1248  165.8060 C.ar    1  UNL1        0.0137
      6 C         140.5589  142.6167  167.2171 C.ar    1  UNL1        0.0284
      7 C         141.8496  142.1510  167.8232 C.ar    1  UNL1        0.1400
      8 F         141.8752  141.6429  169.2342 F       1  UNL1       -0.2042
      9 C         143.1145  142.1935  167.0182 C.ar    1  UNL1        0.0327
     10 C         143.0888  142.7016  165.6071 C.ar    1  UNL1        0.0389
     11 C         141.7981  143.1672  165.0010 C.ar    1  UNL1        0.1348
     12 O         141.7724  143.6753  163.5899 O.3     1  UNL1       -0.4717
     13 C         141.9887  145.1338  163.3139 C.3     1  UNL1        0.2525
     14 N         136.9640  141.3597  163.1773 N.3     1  UNL1       -0.2937
     15 H         136.6673  141.3013  164.1514 H       1  UNL1        0.1236
     16 C         137.7671  140.1248  162.8944 C.3     1  UNL1        0.0987
     17 C         139.0264  139.4962  165.0782 C.ar    1  UNL1        0.1360
     18 C         140.3115  139.2527  165.8124 C.ar    1  UNL1        0.0366
     19 C         141.6224  139.3944  165.0973 C.ar    1  UNL1        0.0031
     20 C         141.6482  139.7795  163.6478 C.ar    1  UNL1       -0.0001
     21 C         140.3631  140.0230  162.9135 C.ar    1  UNL1        0.0001
     22 C         139.0522  139.8813  163.6287 C.ar    1  UNL1        0.0276
     23 C         137.6173  138.4898  167.0150 C.3     1  UNL1        0.2525
     24 O         137.7155  139.3545  165.7933 O.3     1  UNL1       -0.4717
@<TRIPOS>BOND
     1    23    24    1
     2    24    17    1
     3    17    18   ar
     4    18    19   ar
     5    19    20   ar
     6    20    21   ar
     7    21    22   ar
     8    22    16    1
     9    16    14    1
    10    14     1    1
    11     2     1    1
    12     2     3    1
    13     3     4    1
    14     4     5    1
    15     5     6   ar
    16     6     7   ar
    17     7     8    1
    18     7     9   ar
    19     9    10   ar
    20    10    11   ar
    21    11    12    1
    22    12    13    1
    23    22    17   ar
    24     4     2    1
    25    11     5   ar
    26    14    15    1
@<TRIPOS>MOLECULE
*****
 24 26 0 0 0
SMALL
GASTEIGER

@<TRIPOS>ATOM
      1 C         137.6261  142.7840  162.9000 C.3     1  UNL1        0.0691
      2 C         138.1623  143.4858  164.1124 C.3     1  UNL1        0.0202
      3 C         138.0594  144.5831  165.1298 C.3     1  UNL1        0.0062
      4 C         139.1939  143.6040  165.1949 C.3     1  UNL1        0.0268
      5 C         140.4444  143.1070  165.8575 C.ar    1  UNL1        0.0137
      6 C         140.4534  142.8317  167.3320 C.ar    1  UNL1        0.0284
      7 C         141.7039  142.3347  167.9946 C.ar    1  UNL1        0.1400
      8 F         141.7129  142.0594  169.4691 F       1  UNL1       -0.2042
      9 C         142.9456  142.1129  167.1827 C.ar    1  UNL1        0.0327
     10 C         142.9366  142.3882  165.7082 C.ar    1  UNL1        0.0389
     11 C         141.6860  142.8852  165.0456 C.ar    1  UNL1        0.1348
     12 O         141.6771  143.1605  163.5711 O.3     1  UNL1       -0.4717
     13 C         142.1432  144.4889  163.0533 C.3     1  UNL1        0.2525
     14 N         136.9140  141.4720  163.0465 N.3     1  UNL1       -0.2937
     15 H         136.4366  141.4951  163.9476 H       1  UNL1        0.1236
     16 C         137.6890  140.1886  162.9999 C.3     1  UNL1        0.0987
     17 C         140.1106  139.5804  163.7184 C.ar    1  UNL1        0.1360
     18 C         141.1055  139.2656  164.7959 C.ar    1  UNL1        0.0366
     19 C         140.6738  139.2441  166.2323 C.ar    1  UNL1        0.0031
     20 C         139.2473  139.5374  166.5912 C.ar    1  UNL1       -0.0001
     21 C         138.2524  139.8522  165.5138 C.ar    1  UNL1        0.0001
     22 C         138.6840  139.8737  164.0774 C.ar    1  UNL1        0.0276
     23 C         140.6361  138.3207  161.5078 C.3     1  UNL1        0.2525
     24 O         140.5422  139.6020  162.2820 O.3     1  UNL1       -0.4717
@<TRIPOS>BOND
     1    23    24    1
     2    24    17    1
     3    17    18   ar
     4    18    19   ar
     5    19    20   ar
     6    20    21   ar
     7    21    22   ar
     8    22    16    1
     9    16    14    1
    10    14     1    1
    11     2     1    1
    12     2     3    1
    13     3     4    1
    14     4     5    1
    15     5     6   ar
    16     6     7   ar
    17     7     8    1
    18     7     9   ar
    19     9    10   ar
    20    10    11   ar
    21    11    12    1
    22    12    13    1
    23    22    17   ar
    24     4     2    1
    25    11     5   ar
    26    14    15    1
@<TRIPOS>MOLECULE
*****
 24 26 0 0 0
SMALL
GASTEIGER

@<TRIPOS>ATOM
      1 C         143.4486  144.9680  163.0553 C.3     1  UNL1        0.0691
      2 C         143.5277  144.0246  164.2188 C.3     1  UNL1        0.0202
      3 C         144.3026  143.4247  165.3543 C.3     1  UNL1        0.0062
      4 C         142.8898  142.9906  165.0984 C.3     1  UNL1        0.0268
      5 C         141.7058  142.1430  165.4586 C.ar    1  UNL1        0.0137
      6 C         141.2607  142.0446  166.8877 C.ar    1  UNL1        0.0284
      7 C         140.0768  141.1970  167.2478 C.ar    1  UNL1        0.1400
      8 F         139.6318  141.0986  168.6769 F       1  UNL1       -0.2042
      9 C         139.3378  140.4478  166.1789 C.ar    1  UNL1        0.0327
     10 C         139.7828  140.5462  164.7498 C.ar    1  UNL1        0.0389
     11 C         140.9668  141.3938  164.3896 C.ar    1  UNL1        0.1348
     12 O         141.4118  141.4922  162.9606 O.3     1  UNL1       -0.4717
     13 C         141.1790  140.3456  162.0219 C.3     1  UNL1        0.2525
     14 N         142.4016  144.7707  161.9995 N.3     1  UNL1       -0.2937
     15 H         142.8096  145.0824  161.1182 H       1  UNL1        0.1236
     16 C         141.0713  145.4522  162.1258 C.3     1  UNL1        0.0987
     17 C         138.9721  143.9228  162.1919 C.ar    1  UNL1        0.1360
     18 C         137.8649  143.2692  162.9644 C.ar    1  UNL1        0.0366
     19 C         137.7497  143.4913  164.4434 C.ar    1  UNL1        0.0031
     20 C         138.7416  144.3670  165.1499 C.ar    1  UNL1       -0.0001
     21 C         139.8488  145.0206  164.3773 C.ar    1  UNL1        0.0001
     22 C         139.9641  144.7985  162.8984 C.ar    1  UNL1        0.0276
     23 C         138.5453  142.4443  160.0987 C.3     1  UNL1        0.2525
     24 O         139.0873  143.7008  160.7129 O.3     1  UNL1       -0.4717
@<TRIPOS>BOND
     1    23    24    1
     2    24    17    1
     3    17    18   ar
     4    18    19   ar
     5    19    20   ar
     6    20    21   ar
     7    21    22   ar
     8    22    16    1
     9    16    14    1
    10    14     1    1
    11     2     1    1
    12     2     3    1
    13     3     4    1
    14     4     5    1
    15     5     6   ar
    16     6     7   ar
    17     7     8    1
    18     7     9   ar
    19     9    10   ar
    20    10    11   ar
    21    11    12    1
    22    12    13    1
    23    22    17   ar
    24     4     2    1
    25    11     5   ar
    26    14    15    1
@<TRIPOS>MOLECULE
*****
 24 26 0 0 0
SMALL
GASTEIGER

@<TRIPOS>ATOM
      1 C         143.9319  144.4774  163.1157 C.3     1  UNL1        0.0691
      2 C         143.7997  143.6995  164.3914 C.3     1  UNL1        0.0202
      3 C         144.3627  143.2644  165.7119 C.3     1  UNL1        0.0062
      4 C         143.0077  142.7872  165.2804 C.3     1  UNL1        0.0268
      5 C         141.7682  141.9849  165.5445 C.ar    1  UNL1        0.0137
      6 C         141.0594  141.3044  164.4110 C.ar    1  UNL1        0.0284
      7 C         139.8198  140.5021  164.6752 C.ar    1  UNL1        0.1400
      8 F         139.1112  139.8217  163.5418 F       1  UNL1       -0.2042
      9 C         139.2890  140.3803  166.0728 C.ar    1  UNL1        0.0327
     10 C         139.9977  141.0607  167.2063 C.ar    1  UNL1        0.0389
     11 C         141.2373  141.8630  166.9422 C.ar    1  UNL1        0.1348
     12 O         141.9460  142.5434  168.0756 O.3     1  UNL1       -0.4717
     13 C         142.9472  141.7862  168.8967 C.3     1  UNL1        0.2525
     14 N         142.7304  145.1473  162.5178 N.3     1  UNL1       -0.2937
     15 H         143.0674  145.9805  162.0355 H       1  UNL1        0.1236
     16 C         141.5993  145.5855  163.4002 C.3     1  UNL1        0.0987
     17 C         139.8239  144.1551  162.1543 C.ar    1  UNL1        0.1360
     18 C         138.5380  143.3830  162.1643 C.ar    1  UNL1        0.0366
     19 C         137.7416  143.2689  163.4302 C.ar    1  UNL1        0.0031
     20 C         138.2310  143.9270  164.6861 C.ar    1  UNL1       -0.0001
     21 C         139.5169  144.6992  164.6761 C.ar    1  UNL1        0.0001
     22 C         140.3133  144.8132  163.4102 C.ar    1  UNL1        0.0276
     23 C         140.2791  145.3261  159.8802 C.3     1  UNL1        0.2525
     24 O         140.6204  144.2692  160.8883 O.3     1  UNL1       -0.4717
@<TRIPOS>BOND
     1    23    24    1
     2    24    17    1
     3    17    18   ar
     4    18    19   ar
     5    19    20   ar
     6    20    21   ar
     7    21    22   ar
     8    22    16    1
     9    16    14    1
    10    14     1    1
    11     2     1    1
    12     2     3    1
    13     3     4    1
    14     4     5    1
    15     5     6   ar
    16     6     7   ar
    17     7     8    1
    18     7     9   ar
    19     9    10   ar
    20    10    11   ar
    21    11    12    1
    22    12    13    1
    23    22    17   ar
    24     4     2    1
    25    11     5   ar
    26    14    15    1
@<TRIPOS>MOLECULE
*****
 24 26 0 0 0
SMALL
GASTEIGER

@<TRIPOS>ATOM
      1 C         137.4012  142.6165  162.8392 C.3     1  UNL1        0.0691
      2 C         138.1361  143.4641  163.8349 C.3     1  UNL1        0.0202
      3 C         138.1189  144.4198  164.9909 C.3     1  UNL1        0.0062
      4 C         139.4260  143.9765  164.4035 C.3     1  UNL1        0.0268
      5 C         140.9254  144.0165  164.3927 C.ar    1  UNL1        0.0137
      6 C         141.7071  143.0755  165.2608 C.ar    1  UNL1        0.0284
      7 C         143.2065  143.1155  165.2500 C.ar    1  UNL1        0.1400
      8 F         143.9881  142.1745  166.1181 F       1  UNL1       -0.2042
      9 C         143.9243  144.0965  164.3711 C.ar    1  UNL1        0.0327
     10 C         143.1427  145.0375  163.5031 C.ar    1  UNL1        0.0389
     11 C         141.6432  144.9975  163.5138 C.ar    1  UNL1        0.1348
     12 O         140.8616  145.9385  162.6458 O.3     1  UNL1       -0.4717
     13 C         140.4367  145.5133  161.2715 C.3     1  UNL1        0.2525
     14 N         136.9762  141.2258  163.2069 N.3     1  UNL1       -0.2937
     15 H         136.8377  141.2177  164.2174 H       1  UNL1        0.1236
     16 C         137.8625  140.0601  162.8819 C.3     1  UNL1        0.0987
     17 C         139.1921  139.6355  165.0733 C.ar    1  UNL1        0.1360
     18 C         140.5007  139.4665  165.7867 C.ar    1  UNL1        0.0366
     19 C         141.7883  139.5530  165.0222 C.ar    1  UNL1        0.0031
     20 C         141.7674  139.8086  163.5443 C.ar    1  UNL1       -0.0001
     21 C         140.4588  139.9776  162.8309 C.ar    1  UNL1        0.0001
     22 C         139.1711  139.8910  163.5954 C.ar    1  UNL1        0.0276
     23 C         137.7272  138.4965  166.8918 C.3     1  UNL1        0.2525
     24 O         137.9044  139.5489  165.8378 O.3     1  UNL1       -0.4717
@<TRIPOS>BOND
     1    23    24    1
     2    24    17    1
     3    17    18   ar
     4    18    19   ar
     5    19    20   ar
     6    20    21   ar
     7    21    22   ar
     8    22    16    1
     9    16    14    1
    10    14     1    1
    11     2     1    1
    12     2     3    1
    13     3     4    1
    14     4     5    1
    15     5     6   ar
    16     6     7   ar
    17     7     8    1
    18     7     9   ar
    19     9    10   ar
    20    10    11   ar
    21    11    12    1
    22    12    13    1
    23    22    17   ar
    24     4     2    1
    25    11     5   ar
    26    14    15    1
@<TRIPOS>MOLECULE
*****
 24 26 0 0 0
SMALL
GASTEIGER

@<TRIPOS>ATOM
      1 C         145.7047  141.8404  163.5991 C.3     1  UNL1        0.0691
      2 C         144.8433  142.5143  164.6256 C.3     1  UNL1        0.0202
      3 C         144.5343  143.7066  165.4817 C.3     1  UNL1        0.0062
      4 C         143.6604  142.4893  165.5476 C.3     1  UNL1        0.0268
      5 C         142.4729  141.7720  166.1179 C.ar    1  UNL1        0.0137
      6 C         142.5760  141.0933  167.4517 C.ar    1  UNL1        0.0284
      7 C         141.3884  140.3761  168.0220 C.ar    1  UNL1        0.1400
      8 F         141.4916  139.6975  169.3557 F       1  UNL1       -0.2042
      9 C         140.0978  140.3375  167.2586 C.ar    1  UNL1        0.0327
     10 C         139.9947  141.0161  165.9249 C.ar    1  UNL1        0.0389
     11 C         141.1822  141.7334  165.3545 C.ar    1  UNL1        0.1348
     12 O         141.0791  142.4120  164.0208 O.3     1  UNL1       -0.4717
     13 C         141.3953  141.6526  162.7665 C.3     1  UNL1        0.2525
     14 N         145.3208  140.4917  163.0665 N.3     1  UNL1       -0.2937
     15 H         144.5620  140.6426  162.4019 H       1  UNL1        0.1236
     16 C         144.8650  139.4159  164.0071 C.3     1  UNL1        0.0987
     17 C         143.1273  138.3746  162.3804 C.ar    1  UNL1        0.1360
     18 C         141.8175  137.6813  162.1487 C.ar    1  UNL1        0.0366
     19 C         140.9357  137.3357  163.3119 C.ar    1  UNL1        0.0031
     20 C         141.3637  137.6835  164.7068 C.ar    1  UNL1       -0.0001
     21 C         142.6734  138.3769  164.9385 C.ar    1  UNL1        0.0001
     22 C         143.5552  138.7224  163.7753 C.ar    1  UNL1        0.0276
     23 C         143.3993  139.0929  159.8985 C.3     1  UNL1        0.2525
     24 O         144.0091  138.7202  161.2172 O.3     1  UNL1       -0.4717
@<TRIPOS>BOND
     1    23    24    1
     2    24    17    1
     3    17    18   ar
     4    18    19   ar
     5    19    20   ar
     6    20    21   ar
     7    21    22   ar
     8    22    16    1
     9    16    14    1
    10    14     1    1
    11     2     1    1
    12     2     3    1
    13     3     4    1
    14     4     5    1
    15     5     6   ar
    16     6     7   ar
    17     7     8    1
    18     7     9   ar
    19     9    10   ar
    20    10    11   ar
    21    11    12    1
    22    12    13    1
    23    22    17   ar
    24     4     2    1
    25    11     5   ar
    26    14    15    1
@<TRIPOS>MOLECULE
*****
 24 26 0 0 0
SMALL
GASTEIGER

@<TRIPOS>ATOM
      1 C         137.6757  144.2264  162.9784 C.3     1  UNL1        0.0691
      2 C         138.4364  144.3653  164.2638 C.3     1  UNL1        0.0202
      3 C         138.5553  144.9298  165.6483 C.3     1  UNL1        0.0062
      4 C         139.6349  144.0413  165.1054 C.3     1  UNL1        0.0268
      5 C         140.9503  143.3412  165.2778 C.ar    1  UNL1        0.0137
      6 C         141.9675  143.3738  164.1758 C.ar    1  UNL1        0.0284
      7 C         143.2828  142.6738  164.3483 C.ar    1  UNL1        0.1400
      8 F         144.2999  142.7064  163.2463 F       1  UNL1       -0.2042
      9 C         143.5810  141.9410  165.6227 C.ar    1  UNL1        0.0327
     10 C         142.5639  141.9084  166.7247 C.ar    1  UNL1        0.0389
     11 C         141.2485  142.6085  166.5523 C.ar    1  UNL1        0.1348
     12 O         140.2314  142.5758  167.6542 O.3     1  UNL1       -0.4717
     13 C         140.3440  141.5564  168.7488 C.3     1  UNL1        0.2525
     14 N         137.5166  142.8770  162.3431 N.3     1  UNL1       -0.2937
     15 H         136.7429  142.9519  161.6827 H       1  UNL1        0.1236
     16 C         137.2428  141.6740  163.1962 C.3     1  UNL1        0.0987
     17 C         139.6341  140.6839  162.9701 C.ar    1  UNL1        0.1360
     18 C         140.7744  139.8976  163.5461 C.ar    1  UNL1        0.0366
     19 C         140.6635  139.3153  164.9240 C.ar    1  UNL1        0.0031
     20 C         139.4124  139.5192  165.7259 C.ar    1  UNL1       -0.0001
     21 C         138.2722  140.3054  165.1500 C.ar    1  UNL1        0.0001
     22 C         138.3831  140.8877  163.7721 C.ar    1  UNL1        0.0276
     23 C         139.5130  140.3989  160.3906 C.3     1  UNL1        0.2525
     24 O         139.7450  141.2662  161.5922 O.3     1  UNL1       -0.4717
@<TRIPOS>BOND
     1    23    24    1
     2    24    17    1
     3    17    18   ar
     4    18    19   ar
     5    19    20   ar
     6    20    21   ar
     7    21    22   ar
     8    22    16    1
     9    16    14    1
    10    14     1    1
    11     2     1    1
    12     2     3    1
    13     3     4    1
    14     4     5    1
    15     5     6   ar
    16     6     7   ar
    17     7     8    1
    18     7     9   ar
    19     9    10   ar
    20    10    11   ar
    21    11    12    1
    22    12    13    1
    23    22    17   ar
    24     4     2    1
    25    11     5   ar
    26    14    15    1
@<TRIPOS>MOLECULE
*****
 24 26 0 0 0
SMALL
GASTEIGER

@<TRIPOS>ATOM
      1 C         142.2822  138.0075  162.0158 C.3     1  UNL1        0.0691
      2 C         142.0628  139.4898  161.9471 C.3     1  UNL1        0.0202
      3 C         142.4826  140.8437  161.4568 C.3     1  UNL1        0.0062
      4 C         141.2630  140.7031  162.3186 C.3     1  UNL1        0.0268
      5 C         140.0971  141.3225  163.0307 C.ar    1  UNL1        0.0137
      6 C         140.3096  142.5024  163.9323 C.ar    1  UNL1        0.0284
      7 C         139.1438  143.1218  164.6443 C.ar    1  UNL1        0.1400
      8 F         139.3563  144.3016  165.5458 F       1  UNL1       -0.2042
      9 C         137.7654  142.5613  164.4549 C.ar    1  UNL1        0.0327
     10 C         137.5528  141.3815  163.5534 C.ar    1  UNL1        0.0389
     11 C         138.7187  140.7620  162.8412 C.ar    1  UNL1        0.1348
     12 O         138.5062  139.5822  161.9397 O.3     1  UNL1       -0.4717
     13 C         137.7306  139.7418  160.6658 C.3     1  UNL1        0.2525
     14 N         141.2088  137.1151  162.5647 N.3     1  UNL1       -0.2937
     15 H         140.3162  137.5196  162.2817 H       1  UNL1        0.1236
     16 C         141.1227  136.8664  164.0415 C.3     1  UNL1        0.0987
     17 C         141.2127  138.9282  165.6198 C.ar    1  UNL1        0.1360
     18 C         140.5154  139.9162  166.5073 C.ar    1  UNL1        0.0366
     19 C         139.0308  139.8305  166.7039 C.ar    1  UNL1        0.0031
     20 C         138.2435  138.7568  166.0130 C.ar    1  UNL1       -0.0001
     21 C         138.9408  137.7688  165.1256 C.ar    1  UNL1        0.0001
     22 C         140.4254  137.8545  164.9290 C.ar    1  UNL1        0.0276
     23 C         143.3702  140.3532  165.3656 C.3     1  UNL1        0.2525
     24 O         142.6973  139.0138  165.4233 O.3     1  UNL1       -0.4717
@<TRIPOS>BOND
     1    23    24    1
     2    24    17    1
     3    17    18   ar
     4    18    19   ar
     5    19    20   ar
     6    20    21   ar
     7    21    22   ar
     8    22    16    1
     9    16    14    1
    10    14     1    1
    11     2     1    1
    12     2     3    1
    13     3     4    1
    14     4     5    1
    15     5     6   ar
    16     6     7   ar
    17     7     8    1
    18     7     9   ar
    19     9    10   ar
    20    10    11   ar
    21    11    12    1
    22    12    13    1
    23    22    17   ar
    24     4     2    1
    25    11     5   ar
    26    14    15    1
@<TRIPOS>MOLECULE
*****
 24 26 0 0 0
SMALL
GASTEIGER

@<TRIPOS>ATOM
      1 C         138.4023  143.8930  162.5907 C.3     1  UNL1        0.0691
      2 C         138.7624  144.1348  164.0267 C.3     1  UNL1        0.0202
      3 C         138.5466  144.8754  165.3131 C.3     1  UNL1        0.0062
      4 C         139.6019  143.8129  165.2273 C.3     1  UNL1        0.0268
      5 C         140.6958  143.0136  165.8710 C.ar    1  UNL1        0.0137
      6 C         140.4236  142.2496  167.1329 C.ar    1  UNL1        0.0284
      7 C         141.5175  141.4504  167.7766 C.ar    1  UNL1        0.1400
      8 F         141.2452  140.6865  169.0384 F       1  UNL1       -0.2042
      9 C         142.8838  141.4150  167.1584 C.ar    1  UNL1        0.0327
     10 C         143.1561  142.1789  165.8966 C.ar    1  UNL1        0.0389
     11 C         142.0621  142.9782  165.2528 C.ar    1  UNL1        0.1348
     12 O         142.3344  143.7421  163.9910 O.3     1  UNL1       -0.4717
     13 C         143.3384  144.8566  163.9908 C.3     1  UNL1        0.2525
     14 N         137.6716  142.6424  162.2011 N.3     1  UNL1       -0.2937
     15 H         136.8786  142.9310  161.6281 H       1  UNL1        0.1236
     16 C         137.1304  141.7289  163.2607 C.3     1  UNL1        0.0987
     17 C         137.9820  139.4198  162.4281 C.ar    1  UNL1        0.1360
     18 C         138.6548  138.1075  162.7021 C.ar    1  UNL1        0.0366
     19 C         139.1491  137.7920  164.0828 C.ar    1  UNL1        0.0031
     20 C         138.9705  138.7887  165.1894 C.ar    1  UNL1       -0.0001
     21 C         138.2976  140.1010  164.9153 C.ar    1  UNL1        0.0001
     22 C         137.8034  140.4165  163.5347 C.ar    1  UNL1        0.0276
     23 C         138.4593  139.8462  159.9101 C.3     1  UNL1        0.2525
     24 O         137.4877  139.7354  161.0475 O.3     1  UNL1       -0.4717
@<TRIPOS>BOND
     1    23    24    1
     2    24    17    1
     3    17    18   ar
     4    18    19   ar
     5    19    20   ar
     6    20    21   ar
     7    21    22   ar
     8    22    16    1
     9    16    14    1
    10    14     1    1
    11     2     1    1
    12     2     3    1
    13     3     4    1
    14     4     5    1
    15     5     6   ar
    16     6     7   ar
    17     7     8    1
    18     7     9   ar
    19     9    10   ar
    20    10    11   ar
    21    11    12    1
    22    12    13    1
    23    22    17   ar
    24     4     2    1
    25    11     5   ar
    26    14    15    1
