@<TRIPOS>MOLECULE
*****
 26 28 0 0 0
SMALL
GASTEIGER

@<TRIPOS>ATOM
      1 C         139.3628  137.5461  163.7884 C.3     1  UNL1        0.0312
      2 C         138.9512  138.8888  164.3152 C.3     1  UNL1        0.1285
      3 N         138.8434  139.1133  165.7944 N.ar    1  UNL1       -0.2908
      4 C         137.7706  138.5723  166.6924 C.ar    1  UNL1        0.1800
      5 N         138.0538  139.0428  168.0883 N.ar    1  UNL1       -0.2195
      6 C         139.3015  139.8746  168.0530 C.ar    1  UNL1        0.1481
      7 C         140.0564  140.5979  169.1286 C.ar    1  UNL1        0.1487
      8 N         139.5683  140.5543  170.5463 N.pl3   1  UNL1       -0.3413
      9 N         141.2993  141.3648  168.7865 N.ar    1  UNL1       -0.2006
     10 C         141.7874  141.4084  167.3688 C.ar    1  UNL1        0.2264
     11 CL        143.0302  142.1753  167.0267 Cl      1  UNL1       -0.0409
     12 N         141.0325  140.6850  166.2931 N.ar    1  UNL1       -0.1976
     13 C         139.7896  139.9181  166.6353 C.ar    1  UNL1        0.1682
     14 H         138.7526  140.0510  170.7708 H       1  UNL1        0.1438
     15 H         140.0638  141.0291  171.2523 H       1  UNL1        0.1438
     16 C         138.6473  140.0071  163.3629 C.ar    1  UNL1        0.0827
     17 C         138.2419  141.3518  163.8899 C.ar    1  UNL1        0.0535
     18 C         137.9380  142.4701  162.9375 C.ar    1  UNL1        0.1416
     19 C         138.0395  142.2438  161.4581 C.ar    1  UNL1        0.0575
     20 C         138.4448  140.8992  160.9311 C.ar    1  UNL1        0.1016
     21 N         138.7487  139.7809  161.8835 N.ar    1  UNL1       -0.2461
     22 O         137.5327  143.8147  163.4645 O.3     1  UNL1       -0.4692
     23 C         138.5641  144.7326  164.0507 C.3     1  UNL1        0.2772
     24 C         138.8263  144.7205  165.5276 C.3     1  UNL1        0.3615
     25 F         138.1353  145.7086  166.4200 F       1  UNL1       -0.1942
     26 F         139.7792  143.7203  166.1120 F       1  UNL1       -0.1942
@<TRIPOS>BOND
     1     2     1    1
     2     2    16    1
     3    16    17   ar
     4    17    18   ar
     5    18    22    1
     6    22    23    1
     7    23    24    1
     8    24    25    1
     9    24    26    1
    10    18    19   ar
    11    19    20   ar
    12    20    21   ar
    13     2     3    1
    14     3     4   ar
    15     4     5   ar
    16     5     6   ar
    17     6     7   ar
    18     7     8    1
    19     7     9   ar
    20     9    10   ar
    21    10    11    1
    22    10    12   ar
    23    12    13   ar
    24    21    16   ar
    25    13     3   ar
    26    13     6   ar
    27     8    14    1
    28     8    15    1
@<TRIPOS>MOLECULE
*****
 26 28 0 0 0
SMALL
GASTEIGER

@<TRIPOS>ATOM
      1 C         137.7298  138.5589  166.9975 C.3     1  UNL1        0.0312
      2 C         138.8132  139.0913  166.1070 C.3     1  UNL1        0.1285
      3 N         138.6373  139.0709  164.6175 N.ar    1  UNL1       -0.2908
      4 C         138.7554  137.8658  163.7322 C.ar    1  UNL1        0.1800
      5 N         138.5036  138.3023  162.3193 N.ar    1  UNL1       -0.2195
      6 C         138.2298  139.7770  162.3315 C.ar    1  UNL1        0.1481
      7 C         137.9160  140.7487  161.2327 C.ar    1  UNL1        0.1487
      8 N         137.8333  140.2736  159.8123 N.pl3   1  UNL1       -0.3413
      9 N         137.6848  142.1955  161.5543 N.ar    1  UNL1       -0.2006
     10 C         137.7675  142.6706  162.9747 C.ar    1  UNL1        0.2264
     11 CL        137.5363  144.1173  163.2963 Cl      1  UNL1       -0.0409
     12 N         138.0813  141.6988  164.0735 N.ar    1  UNL1       -0.1976
     13 C         138.3125  140.2521  163.7519 C.ar    1  UNL1        0.1682
     14 H         137.9851  139.3241  159.6013 H       1  UNL1        0.1438
     15 H         137.6273  140.9114  159.0912 H       1  UNL1        0.1438
     16 C         140.0723  139.6441  166.7061 C.ar    1  UNL1        0.0827
     17 C         140.1468  139.9121  168.1801 C.ar    1  UNL1        0.0535
     18 C         141.4059  140.4649  168.7792 C.ar    1  UNL1        0.1416
     19 C         142.5907  140.7497  167.9043 C.ar    1  UNL1        0.0575
     20 C         142.5162  140.4816  166.4303 C.ar    1  UNL1        0.1016
     21 N         141.2570  139.9288  165.8313 N.ar    1  UNL1       -0.2461
     22 O         141.4805  140.7329  170.2532 O.3     1  UNL1       -0.4692
     23 C         141.4567  142.1441  170.7610 C.3     1  UNL1        0.2772
     24 C         140.3164  143.0507  170.4036 C.3     1  UNL1        0.3615
     25 F         138.9023  142.5928  170.6060 F       1  UNL1       -0.1942
     26 F         140.5901  144.4152  169.8438 F       1  UNL1       -0.1942
@<TRIPOS>BOND
     1     2     1    1
     2     2    16    1
     3    16    17   ar
     4    17    18   ar
     5    18    22    1
     6    22    23    1
     7    23    24    1
     8    24    25    1
     9    24    26    1
    10    18    19   ar
    11    19    20   ar
    12    20    21   ar
    13     2     3    1
    14     3     4   ar
    15     4     5   ar
    16     5     6   ar
    17     6     7   ar
    18     7     8    1
    19     7     9   ar
    20     9    10   ar
    21    10    11    1
    22    10    12   ar
    23    12    13   ar
    24    21    16   ar
    25    13     3   ar
    26    13     6   ar
    27     8    14    1
    28     8    15    1
@<TRIPOS>MOLECULE
*****
 26 28 0 0 0
SMALL
GASTEIGER

@<TRIPOS>ATOM
      1 C         138.5481  144.9138  165.5613 C.3     1  UNL1        0.0312
      2 C         139.2363  143.7148  164.9792 C.3     1  UNL1        0.1285
      3 N         138.6770  143.0489  163.7570 N.ar    1  UNL1       -0.2908
      4 C         138.1499  143.7445  162.5371 C.ar    1  UNL1        0.1800
      5 N         137.6938  142.6960  161.5663 N.ar    1  UNL1       -0.2195
      6 C         137.9391  141.3522  162.1862 C.ar    1  UNL1        0.1481
      7 C         137.6876  139.9583  161.6927 C.ar    1  UNL1        0.1487
      8 N         137.0799  139.7401  160.3388 N.pl3   1  UNL1       -0.3413
      9 N         138.0437  138.7823  162.5532 N.ar    1  UNL1       -0.2006
     10 C         138.6514  139.0004  163.9072 C.ar    1  UNL1        0.2264
     11 CL        139.0075  137.8246  164.7677 Cl      1  UNL1       -0.0409
     12 N         138.9029  140.3945  164.4006 N.ar    1  UNL1       -0.1976
     13 C         138.5467  141.5704  163.5401 C.ar    1  UNL1        0.1682
     14 H         136.8461  140.5119  159.7740 H       1  UNL1        0.1438
     15 H         136.9148  138.8252  160.0149 H       1  UNL1        0.1438
     16 C         140.4837  143.1817  165.6193 C.ar    1  UNL1        0.0827
     17 C         140.4201  142.5604  166.9832 C.ar    1  UNL1        0.0535
     18 C         141.6675  142.0274  167.6233 C.ar    1  UNL1        0.1416
     19 C         142.9785  142.1155  166.8997 C.ar    1  UNL1        0.0575
     20 C         143.0420  142.7368  165.5358 C.ar    1  UNL1        0.1016
     21 N         141.7946  143.2699  164.8957 N.ar    1  UNL1       -0.2461
     22 O         141.6040  141.4061  168.9871 O.3     1  UNL1       -0.4692
     23 C         140.5241  140.4168  169.3111 C.3     1  UNL1        0.2772
     24 C         139.2372  140.8848  169.9232 C.3     1  UNL1        0.3615
     25 F         138.0551  139.9631  169.9804 F       1  UNL1       -0.1942
     26 F         139.1324  142.2744  170.4782 F       1  UNL1       -0.1942
@<TRIPOS>BOND
     1     2     1    1
     2     2    16    1
     3    16    17   ar
     4    17    18   ar
     5    18    22    1
     6    22    23    1
     7    23    24    1
     8    24    25    1
     9    24    26    1
    10    18    19   ar
    11    19    20   ar
    12    20    21   ar
    13     2     3    1
    14     3     4   ar
    15     4     5   ar
    16     5     6   ar
    17     6     7   ar
    18     7     8    1
    19     7     9   ar
    20     9    10   ar
    21    10    11    1
    22    10    12   ar
    23    12    13   ar
    24    21    16   ar
    25    13     3   ar
    26    13     6   ar
    27     8    14    1
    28     8    15    1
@<TRIPOS>MOLECULE
*****
 26 28 0 0 0
SMALL
GASTEIGER

@<TRIPOS>ATOM
      1 C         144.8403  143.6498  165.5310 C.3     1  UNL1        0.0312
      2 C         143.7922  142.8858  164.7775 C.3     1  UNL1        0.1285
      3 N         143.1142  143.5103  163.5942 N.ar    1  UNL1       -0.2908
      4 C         143.7149  143.7008  162.2330 C.ar    1  UNL1        0.1800
      5 N         142.6884  144.3623  161.3619 N.ar    1  UNL1       -0.2195
      6 C         141.4534  144.5807  162.1847 C.ar    1  UNL1        0.1481
      7 C         140.1232  145.1910  161.8560 C.ar    1  UNL1        0.1487
      8 N         139.8601  145.7175  160.4763 N.pl3   1  UNL1       -0.3413
      9 N         139.0561  145.2747  162.9069 N.ar    1  UNL1       -0.2006
     10 C         139.3193  144.7482  164.2866 C.ar    1  UNL1        0.2264
     11 CL        138.2523  144.8320  165.3375 Cl      1  UNL1       -0.0409
     12 N         140.6496  144.1379  164.6153 N.ar    1  UNL1       -0.1976
     13 C         141.7166  144.0541  163.5644 C.ar    1  UNL1        0.1682
     14 H         140.5604  145.6625  159.7865 H       1  UNL1        0.1438
     15 H         138.9870  146.1181  160.2605 H       1  UNL1        0.1438
     16 C         143.4221  141.4971  165.2073 C.ar    1  UNL1        0.0827
     17 C         142.9328  141.2496  166.6036 C.ar    1  UNL1        0.0535
     18 C         142.5628  139.8610  167.0334 C.ar    1  UNL1        0.1416
     19 C         142.6819  138.7198  166.0670 C.ar    1  UNL1        0.0575
     20 C         143.1712  138.9675  164.6709 C.ar    1  UNL1        0.1016
     21 N         143.5413  140.3561  164.2410 N.ar    1  UNL1       -0.2461
     22 O         142.0735  139.6134  168.4296 O.3     1  UNL1       -0.4692
     23 C         141.0236  140.5037  169.0253 C.3     1  UNL1        0.2772
     24 C         139.5711  140.1778  168.8411 C.3     1  UNL1        0.3615
     25 F         139.1205  139.4205  167.6271 F       1  UNL1       -0.1942
     26 F         138.5692  140.6090  169.8708 F       1  UNL1       -0.1942
@<TRIPOS>BOND
     1     2     1    1
     2     2    16    1
     3    16    17   ar
     4    17    18   ar
     5    18    22    1
     6    22    23    1
     7    23    24    1
     8    24    25    1
     9    24    26    1
    10    18    19   ar
    11    19    20   ar
    12    20    21   ar
    13     2     3    1
    14     3     4   ar
    15     4     5   ar
    16     5     6   ar
    17     6     7   ar
    18     7     8    1
    19     7     9   ar
    20     9    10   ar
    21    10    11    1
    22    10    12   ar
    23    12    13   ar
    24    21    16   ar
    25    13     3   ar
    26    13     6   ar
    27     8    14    1
    28     8    15    1
@<TRIPOS>MOLECULE
*****
 26 28 0 0 0
SMALL
GASTEIGER

@<TRIPOS>ATOM
      1 C         141.2108  138.7426  165.0697 C.3     1  UNL1        0.0312
      2 C         141.8225  139.8710  165.8459 C.3     1  UNL1        0.1285
      3 N         142.5429  140.9724  165.1262 N.ar    1  UNL1       -0.2908
      4 C         143.9587  140.9248  164.6330 C.ar    1  UNL1        0.1800
      5 N         144.2648  142.2378  163.9754 N.ar    1  UNL1       -0.2195
      6 C         143.0382  143.0968  164.0622 C.ar    1  UNL1        0.1481
      7 C         142.7528  144.4901  163.5855 C.ar    1  UNL1        0.1487
      8 N         143.8170  145.2722  162.8742 N.pl3   1  UNL1       -0.3413
      9 N         141.4032  145.1014  163.8201 N.ar    1  UNL1       -0.2006
     10 C         140.3390  144.3193  164.5313 C.ar    1  UNL1        0.2264
     11 CL        138.9894  144.9305  164.7659 Cl      1  UNL1       -0.0409
     12 N         140.6244  142.9260  165.0080 N.ar    1  UNL1       -0.1976
     13 C         141.9740  142.3148  164.7735 C.ar    1  UNL1        0.1682
     14 H         144.7027  144.8710  162.7203 H       1  UNL1        0.1438
     15 H         143.6296  146.1866  162.5614 H       1  UNL1        0.1438
     16 C         141.7138  139.8980  167.3417 C.ar    1  UNL1        0.0827
     17 C         140.5997  140.6574  167.9990 C.ar    1  UNL1        0.0535
     18 C         140.4910  140.6844  169.4948 C.ar    1  UNL1        0.1416
     19 C         141.4964  139.9521  170.3333 C.ar    1  UNL1        0.0575
     20 C         142.6105  139.1928  169.6759 C.ar    1  UNL1        0.1016
     21 N         142.7192  139.1657  168.1801 N.ar    1  UNL1       -0.2461
     22 O         139.3769  141.4437  170.1523 O.3     1  UNL1       -0.4692
     23 C         139.6613  142.7445  170.8431 C.3     1  UNL1        0.2772
     24 C         140.4898  143.7914  170.1593 C.3     1  UNL1        0.3615
     25 F         140.0214  145.2161  170.1278 F       1  UNL1       -0.1942
     26 F         141.7866  143.4136  169.5070 F       1  UNL1       -0.1942
@<TRIPOS>BOND
     1     2     1    1
     2     2    16    1
     3    16    17   ar
     4    17    18   ar
     5    18    22    1
     6    22    23    1
     7    23    24    1
     8    24    25    1
     9    24    26    1
    10    18    19   ar
    11    19    20   ar
    12    20    21   ar
    13     2     3    1
    14     3     4   ar
    15     4     5   ar
    16     5     6   ar
    17     6     7   ar
    18     7     8    1
    19     7     9   ar
    20     9    10   ar
    21    10    11    1
    22    10    12   ar
    23    12    13   ar
    24    21    16   ar
    25    13     3   ar
    26    13     6   ar
    27     8    14    1
    28     8    15    1
@<TRIPOS>MOLECULE
*****
 26 28 0 0 0
SMALL
GASTEIGER

@<TRIPOS>ATOM
      1 C         138.7398  144.7861  165.4712 C.3     1  UNL1        0.0312
      2 C         139.4514  143.6421  164.8117 C.3     1  UNL1        0.1285
      3 N         138.8213  142.9386  163.6464 N.ar    1  UNL1       -0.2908
      4 C         138.2275  143.5957  162.4358 C.ar    1  UNL1        0.1800
      5 N         137.7136  142.5176  161.5283 N.ar    1  UNL1       -0.2195
      6 C         137.9898  141.1941  162.1780 C.ar    1  UNL1        0.1481
      7 C         137.7064  139.7857  161.7468 C.ar    1  UNL1        0.1487
      8 N         137.0218  139.5255  160.4378 N.pl3   1  UNL1       -0.3413
      9 N         138.1076  138.6374  162.6246 N.ar    1  UNL1       -0.2006
     10 C         138.7922  138.8976  163.9337 C.ar    1  UNL1        0.2264
     11 CL        139.1933  137.7494  164.8115 Cl      1  UNL1       -0.0409
     12 N         139.0756  140.3061  164.3649 N.ar    1  UNL1       -0.1976
     13 C         138.6744  141.4543  163.4871 C.ar    1  UNL1        0.1682
     14 H         136.7585  140.2792  159.8616 H       1  UNL1        0.1438
     15 H         136.8358  138.6011  160.1547 H       1  UNL1        0.1438
     16 C         140.7931  143.2018  165.3175 C.ar    1  UNL1        0.0827
     17 C         142.0101  143.3655  164.4560 C.ar    1  UNL1        0.0535
     18 C         143.3518  142.9251  164.9618 C.ar    1  UNL1        0.1416
     19 C         143.4766  142.3210  166.3292 C.ar    1  UNL1        0.0575
     20 C         142.2596  142.1572  167.1906 C.ar    1  UNL1        0.1016
     21 N         140.9179  142.5976  166.6848 N.ar    1  UNL1       -0.2461
     22 O         144.5688  143.0888  164.1004 O.3     1  UNL1       -0.4692
     23 C         145.5304  141.9494  163.9363 C.3     1  UNL1        0.2772
     24 C         145.0172  140.5722  163.6364 C.3     1  UNL1        0.3615
     25 F         145.3716  139.4269  164.5381 F       1  UNL1       -0.1942
     26 F         144.1498  140.3402  162.4349 F       1  UNL1       -0.1942
@<TRIPOS>BOND
     1     2     1    1
     2     2    16    1
     3    16    17   ar
     4    17    18   ar
     5    18    22    1
     6    22    23    1
     7    23    24    1
     8    24    25    1
     9    24    26    1
    10    18    19   ar
    11    19    20   ar
    12    20    21   ar
    13     2     3    1
    14     3     4   ar
    15     4     5   ar
    16     5     6   ar
    17     6     7   ar
    18     7     8    1
    19     7     9   ar
    20     9    10   ar
    21    10    11    1
    22    10    12   ar
    23    12    13   ar
    24    21    16   ar
    25    13     3   ar
    26    13     6   ar
    27     8    14    1
    28     8    15    1
@<TRIPOS>MOLECULE
*****
 26 28 0 0 0
SMALL
GASTEIGER

@<TRIPOS>ATOM
      1 C         139.3189  139.4681  165.0076 C.3     1  UNL1        0.0312
      2 C         140.2681  140.4818  165.5747 C.3     1  UNL1        0.1285
      3 N         141.1938  140.1001  166.6915 N.ar    1  UNL1       -0.2908
      4 C         142.3212  139.1145  166.6042 C.ar    1  UNL1        0.1800
      5 N         142.9789  139.0422  167.9504 N.ar    1  UNL1       -0.2195
      6 C         142.2579  139.9831  168.8697 C.ar    1  UNL1        0.1481
      7 C         142.4635  140.3290  170.3147 C.ar    1  UNL1        0.1487
      8 N         143.5667  139.6752  171.0927 N.pl3   1  UNL1       -0.3413
      9 N         141.5658  141.3287  170.9816 N.ar    1  UNL1       -0.2006
     10 C         140.4626  141.9825  170.2036 C.ar    1  UNL1        0.2264
     11 CL        139.5649  142.9822  170.8705 Cl      1  UNL1       -0.0409
     12 N         140.2570  141.6366  168.7585 N.ar    1  UNL1       -0.1976
     13 C         141.1547  140.6369  168.0916 C.ar    1  UNL1        0.1682
     14 H         144.1559  139.0191  170.6550 H       1  UNL1        0.1438
     15 H         143.7017  139.9022  172.0412 H       1  UNL1        0.1438
     16 C         140.2914  141.8773  165.0250 C.ar    1  UNL1        0.0827
     17 C         141.2455  142.2336  163.9237 C.ar    1  UNL1        0.0535
     18 C         141.2688  143.6291  163.3740 C.ar    1  UNL1        0.1416
     19 C         140.3381  144.6682  163.9255 C.ar    1  UNL1        0.0575
     20 C         139.3840  144.3118  165.0267 C.ar    1  UNL1        0.1016
     21 N         139.3607  142.9163  165.5764 N.ar    1  UNL1       -0.2461
     22 O         142.2229  143.9855  162.2727 O.3     1  UNL1       -0.4692
     23 C         143.6944  144.0661  162.5521 C.3     1  UNL1        0.2772
     24 C         144.1803  144.3016  163.9515 C.3     1  UNL1        0.3615
     25 F         144.8686  143.1999  164.7018 F       1  UNL1       -0.1942
     26 F         143.9781  145.6386  164.6007 F       1  UNL1       -0.1942
@<TRIPOS>BOND
     1     2     1    1
     2     2    16    1
     3    16    17   ar
     4    17    18   ar
     5    18    22    1
     6    22    23    1
     7    23    24    1
     8    24    25    1
     9    24    26    1
    10    18    19   ar
    11    19    20   ar
    12    20    21   ar
    13     2     3    1
    14     3     4   ar
    15     4     5   ar
    16     5     6   ar
    17     6     7   ar
    18     7     8    1
    19     7     9   ar
    20     9    10   ar
    21    10    11    1
    22    10    12   ar
    23    12    13   ar
    24    21    16   ar
    25    13     3   ar
    26    13     6   ar
    27     8    14    1
    28     8    15    1
@<TRIPOS>MOLECULE
*****
 26 28 0 0 0
SMALL
GASTEIGER

@<TRIPOS>ATOM
      1 C         138.0744  138.1200  166.3198 C.3     1  UNL1        0.0312
      2 C         139.1646  138.9118  165.6607 C.3     1  UNL1        0.1285
      3 N         139.7411  138.4517  164.3546 N.ar    1  UNL1       -0.2908
      4 C         138.9772  137.8272  163.2248 C.ar    1  UNL1        0.1800
      5 N         139.9467  137.5249  162.1210 N.ar    1  UNL1       -0.2195
      6 C         141.3099  137.9625  162.5685 C.ar    1  UNL1        0.1481
      7 C         142.6504  137.9134  161.8973 C.ar    1  UNL1        0.1487
      8 N         142.7775  137.3406  160.5168 N.pl3   1  UNL1       -0.3413
      9 N         143.8640  138.4371  162.6066 N.ar    1  UNL1       -0.2006
     10 C         143.7369  139.0099  163.9871 C.ar    1  UNL1        0.2264
     11 CL        144.9504  139.5337  164.6964 Cl      1  UNL1       -0.0409
     12 N         142.3963  139.0590  164.6583 N.ar    1  UNL1       -0.1976
     13 C         141.1828  138.5353  163.9489 C.ar    1  UNL1        0.1682
     14 H         141.9810  136.9968  160.0513 H       1  UNL1        0.1438
     15 H         143.6574  137.3083  160.0763 H       1  UNL1        0.1438
     16 C         139.6784  140.1638  166.3077 C.ar    1  UNL1        0.0827
     17 C         140.0409  141.3498  165.4638 C.ar    1  UNL1        0.0535
     18 C         140.5546  142.6017  166.1109 C.ar    1  UNL1        0.1416
     19 C         140.7059  142.6678  167.6018 C.ar    1  UNL1        0.0575
     20 C         140.3434  141.4818  168.4457 C.ar    1  UNL1        0.1016
     21 N         139.8296  140.2299  167.7986 N.ar    1  UNL1       -0.2461
     22 O         140.9171  143.7877  165.2670 O.3     1  UNL1       -0.4692
     23 C         139.9037  144.3828  164.3349 C.3     1  UNL1        0.2772
     24 C         138.5311  144.7213  164.8363 C.3     1  UNL1        0.3615
     25 F         138.3636  145.3968  166.1651 F       1  UNL1       -0.1942
     26 F         137.3262  144.3841  164.0090 F       1  UNL1       -0.1942
@<TRIPOS>BOND
     1     2     1    1
     2     2    16    1
     3    16    17   ar
     4    17    18   ar
     5    18    22    1
     6    22    23    1
     7    23    24    1
     8    24    25    1
     9    24    26    1
    10    18    19   ar
    11    19    20   ar
    12    20    21   ar
    13     2     3    1
    14     3     4   ar
    15     4     5   ar
    16     5     6   ar
    17     6     7   ar
    18     7     8    1
    19     7     9   ar
    20     9    10   ar
    21    10    11    1
    22    10    12   ar
    23    12    13   ar
    24    21    16   ar
    25    13     3   ar
    26    13     6   ar
    27     8    14    1
    28     8    15    1
@<TRIPOS>MOLECULE
*****
 26 28 0 0 0
SMALL
GASTEIGER

@<TRIPOS>ATOM
      1 C         143.8343  139.8426  165.0824 C.3     1  UNL1        0.0312
      2 C         143.1634  141.1010  165.5474 C.3     1  UNL1        0.1285
      3 N         142.5230  141.1527  166.9028 N.ar    1  UNL1       -0.2908
      4 C         143.0930  141.8138  168.1227 C.ar    1  UNL1        0.1800
      5 N         142.1223  141.6220  169.2500 N.ar    1  UNL1       -0.2195
      6 C         140.9524  140.8425  168.7270 C.ar    1  UNL1        0.1481
      7 C         139.6936  140.3593  169.3842 C.ar    1  UNL1        0.1487
      8 N         139.4460  140.6494  170.8349 N.pl3   1  UNL1       -0.3413
      9 N         138.6824  139.5860  168.5908 N.ar    1  UNL1       -0.2006
     10 C         138.9300  139.2959  167.1400 C.ar    1  UNL1        0.2264
     11 CL        137.9189  138.5226  166.3466 Cl      1  UNL1       -0.0409
     12 N         140.1889  139.7791  166.4828 N.ar    1  UNL1       -0.1976
     13 C         141.2000  140.5524  167.2763 C.ar    1  UNL1        0.1682
     14 H         140.1097  141.1569  171.3557 H       1  UNL1        0.1438
     15 H         138.6198  140.3322  171.2663 H       1  UNL1        0.1438
     16 C         143.1330  142.3077  164.6570 C.ar    1  UNL1        0.0827
     17 C         141.9577  143.2390  164.6958 C.ar    1  UNL1        0.0535
     18 C         141.9272  144.4457  163.8054 C.ar    1  UNL1        0.1416
     19 C         143.0721  144.7212  162.8761 C.ar    1  UNL1        0.0575
     20 C         144.2473  143.7899  162.8373 C.ar    1  UNL1        0.1016
     21 N         144.2778  142.5832  163.7277 N.ar    1  UNL1       -0.2461
     22 O         140.7520  145.3770  163.8442 O.3     1  UNL1       -0.4692
     23 C         139.3584  144.8303  163.7485 C.3     1  UNL1        0.2772
     24 C         138.5609  144.5871  164.9954 C.3     1  UNL1        0.3615
     25 F         137.0878  144.3192  164.9031 F       1  UNL1       -0.1942
     26 F         139.2363  144.6118  166.3344 F       1  UNL1       -0.1942
@<TRIPOS>BOND
     1     2     1    1
     2     2    16    1
     3    16    17   ar
     4    17    18   ar
     5    18    22    1
     6    22    23    1
     7    23    24    1
     8    24    25    1
     9    24    26    1
    10    18    19   ar
    11    19    20   ar
    12    20    21   ar
    13     2     3    1
    14     3     4   ar
    15     4     5   ar
    16     5     6   ar
    17     6     7   ar
    18     7     8    1
    19     7     9   ar
    20     9    10   ar
    21    10    11    1
    22    10    12   ar
    23    12    13   ar
    24    21    16   ar
    25    13     3   ar
    26    13     6   ar
    27     8    14    1
    28     8    15    1
