@<TRIPOS>MOLECULE
*****
 26 28 0 0 0
SMALL
GASTEIGER

@<TRIPOS>ATOM
      1 C         140.9545  139.0250  164.5828 C.2     1  UNL1        0.2685
      2 O         141.8039  137.9677  165.2236 O.2     1  UNL1       -0.2682
      3 N         140.8805  140.3958  165.1873 N.am    1  UNL1       -0.2723
      4 C         140.0311  141.4532  164.5465 C.3     1  UNL1        0.0761
      5 C         138.5820  141.5758  164.9140 C.3     1  UNL1        0.0212
      6 C         137.7326  142.6331  164.2732 C.3     1  UNL1        0.0172
      7 C         138.3324  143.5678  163.2650 C.3     1  UNL1        0.0509
      8 N         137.4830  144.6252  162.6242 N.3     1  UNL1       -0.3222
      9 C         139.7815  143.4453  162.8975 C.3     1  UNL1        0.0172
     10 C         140.6308  142.3880  163.5383 C.3     1  UNL1        0.0212
     11 H         136.5321  144.5642  162.9881 H       1  UNL1        0.1188
     12 H         137.4700  144.4849  161.6140 H       1  UNL1        0.1188
     13 C         139.6218  138.4651  159.5043 C.3     1  UNL1        0.1321
     14 N         139.5666  138.4542  161.0032 N.ar    1  UNL1       -0.3057
     15 C         138.4054  138.0043  161.8395 C.ar    1  UNL1        0.1787
     16 N         138.7840  138.1633  163.2822 N.ar    1  UNL1       -0.2192
     17 C         140.1791  138.7116  163.3376 C.ar    1  UNL1        0.1535
     18 C         140.6628  138.8914  161.9292 C.ar    1  UNL1        0.1012
     19 C         141.6559  140.7093  166.4325 C.3     1  UNL1        0.1204
     20 C         140.9334  141.1029  167.6868 C.ar    1  UNL1       -0.0015
     21 C         140.0762  140.1025  168.4040 C.ar    1  UNL1       -0.0026
     22 C         139.3538  140.4961  169.6582 C.ar    1  UNL1        0.0006
     23 C         139.4885  141.8902  170.1952 C.ar    1  UNL1        0.0114
     24 C         140.3457  142.8906  169.4780 C.ar    1  UNL1        0.0574
     25 CL        140.4804  144.2847  170.0151 Cl      1  UNL1       -0.0823
     26 C         141.0681  142.4970  168.2238 C.ar    1  UNL1        0.0088
@<TRIPOS>BOND
     1    13    14    1
     2    14    15   ar
     3    15    16   ar
     4    16    17   ar
     5    17     1    1
     6     1     2    2
     7     1     3   am
     8     3    19    1
     9    19    20    1
    10    20    21   ar
    11    21    22   ar
    12    22    23   ar
    13    23    24   ar
    14    24    25    1
    15    24    26   ar
    16     4     3    1
    17     4     5    1
    18     5     6    1
    19     6     7    1
    20     7     8    1
    21     7     9    1
    22     9    10    1
    23    17    18   ar
    24    18    14   ar
    25    26    20   ar
    26    10     4    1
    27     8    11    1
    28     8    12    1
@<TRIPOS>MOLECULE
*****
 26 28 0 0 0
SMALL
GASTEIGER

@<TRIPOS>ATOM
      1 C         142.0336  139.3812  168.0205 C.2     1  UNL1        0.2685
      2 O         143.2186  138.7506  168.6897 O.2     1  UNL1       -0.2682
      3 N         141.8349  139.2230  166.5421 N.am    1  UNL1       -0.2723
      4 C         140.6497  139.8537  165.8730 C.3     1  UNL1        0.0761
      5 C         139.3825  139.0705  165.6979 C.3     1  UNL1        0.0212
      6 C         138.1974  139.7012  165.0287 C.3     1  UNL1        0.0172
      7 C         138.2796  141.1151  164.5347 C.3     1  UNL1        0.0509
      8 N         137.0944  141.7457  163.8655 N.3     1  UNL1       -0.3222
      9 C         139.5467  141.8983  164.7098 C.3     1  UNL1        0.0172
     10 C         140.7318  141.2676  165.3789 C.3     1  UNL1        0.0212
     11 H         136.3263  141.0754  163.8319 H       1  UNL1        0.1188
     12 H         137.3467  142.0216  162.9165 H       1  UNL1        0.1188
     13 C         139.7616  143.2871  170.7525 C.3     1  UNL1        0.1321
     14 N         140.0028  141.9655  170.0854 N.ar    1  UNL1       -0.3057
     15 C         139.0555  140.8026  170.0641 C.ar    1  UNL1        0.1787
     16 N         139.7009  139.6930  169.2881 N.ar    1  UNL1       -0.2192
     17 C         141.0471  140.1701  168.8296 C.ar    1  UNL1        0.1535
     18 C         141.2338  141.5745  169.3224 C.ar    1  UNL1        0.1012
     19 C         142.8212  138.4342  165.7330 C.3     1  UNL1        0.1204
     20 C         143.3580  138.9956  164.4496 C.ar    1  UNL1       -0.0015
     21 C         142.9013  138.4334  163.1361 C.ar    1  UNL1       -0.0026
     22 C         143.4380  138.9948  161.8529 C.ar    1  UNL1        0.0006
     23 C         144.4314  140.1183  161.8831 C.ar    1  UNL1        0.0114
     24 C         144.8880  140.6805  163.1967 C.ar    1  UNL1        0.0574
     25 CL        145.8814  141.8040  163.2269 Cl      1  UNL1       -0.0823
     26 C         144.3513  140.1191  164.4799 C.ar    1  UNL1        0.0088
@<TRIPOS>BOND
     1    13    14    1
     2    14    15   ar
     3    15    16   ar
     4    16    17   ar
     5    17     1    1
     6     1     2    2
     7     1     3   am
     8     3    19    1
     9    19    20    1
    10    20    21   ar
    11    21    22   ar
    12    22    23   ar
    13    23    24   ar
    14    24    25    1
    15    24    26   ar
    16     4     3    1
    17     4     5    1
    18     5     6    1
    19     6     7    1
    20     7     8    1
    21     7     9    1
    22     9    10    1
    23    17    18   ar
    24    18    14   ar
    25    26    20   ar
    26    10     4    1
    27     8    11    1
    28     8    12    1
@<TRIPOS>MOLECULE
*****
 26 28 0 0 0
SMALL
GASTEIGER

@<TRIPOS>ATOM
      1 C         139.5368  142.5042  164.4098 C.2     1  UNL1        0.2685
      2 O         138.1096  142.4246  164.8645 O.2     1  UNL1       -0.2682
      3 N         140.5555  141.5543  164.9665 N.am    1  UNL1       -0.2723
      4 C         141.9827  141.6340  164.5117 C.3     1  UNL1        0.0761
      5 C         142.4457  140.8105  163.3466 C.3     1  UNL1        0.0212
      6 C         143.8728  140.8902  162.8919 C.3     1  UNL1        0.0172
      7 C         144.8370  141.7934  163.6022 C.3     1  UNL1        0.0509
      8 N         146.2642  141.8731  163.1474 N.3     1  UNL1       -0.3222
      9 C         144.3740  142.6169  164.7673 C.3     1  UNL1        0.0172
     10 C         142.9469  142.5372  165.2220 C.3     1  UNL1        0.0212
     11 H         146.4022  141.2520  162.3502 H       1  UNL1        0.1188
     12 H         146.8802  141.5900  163.9096 H       1  UNL1        0.1188
     13 C         140.4512  144.9477  159.8190 C.3     1  UNL1        0.1321
     14 N         140.3656  144.6569  161.2881 N.ar    1  UNL1       -0.3057
     15 C         140.7823  145.5793  162.3952 C.ar    1  UNL1        0.1787
     16 N         140.5225  144.8852  163.6993 N.ar    1  UNL1       -0.2192
     17 C         139.9453  143.5338  163.3982 C.ar    1  UNL1        0.1535
     18 C         139.8483  143.3927  161.9080 C.ar    1  UNL1        0.1012
     19 C         140.1470  140.5248  165.9780 C.3     1  UNL1        0.1204
     20 C         139.9676  140.9152  167.4152 C.ar    1  UNL1       -0.0015
     21 C         139.2922  139.9750  168.3691 C.ar    1  UNL1       -0.0026
     22 C         139.1129  140.3655  169.8062 C.ar    1  UNL1        0.0006
     23 C         139.6090  141.6960  170.2894 C.ar    1  UNL1        0.0114
     24 C         140.2844  142.6361  169.3356 C.ar    1  UNL1        0.0574
     25 CL        140.7805  143.9667  169.8188 Cl      1  UNL1       -0.0823
     26 C         140.4637  142.2457  167.8984 C.ar    1  UNL1        0.0088
@<TRIPOS>BOND
     1    13    14    1
     2    14    15   ar
     3    15    16   ar
     4    16    17   ar
     5    17     1    1
     6     1     2    2
     7     1     3   am
     8     3    19    1
     9    19    20    1
    10    20    21   ar
    11    21    22   ar
    12    22    23   ar
    13    23    24   ar
    14    24    25    1
    15    24    26   ar
    16     4     3    1
    17     4     5    1
    18     5     6    1
    19     6     7    1
    20     7     8    1
    21     7     9    1
    22     9    10    1
    23    17    18   ar
    24    18    14   ar
    25    26    20   ar
    26    10     4    1
    27     8    11    1
    28     8    12    1
@<TRIPOS>MOLECULE
*****
 26 28 0 0 0
SMALL
GASTEIGER

@<TRIPOS>ATOM
      1 C         138.7069  139.1096  165.8452 C.2     1  UNL1        0.2685
      2 O         137.4670  138.9107  166.6656 O.2     1  UNL1       -0.2682
      3 N         140.0003  139.4674  166.5153 N.am    1  UNL1       -0.2723
      4 C         141.2402  139.6662  165.6948 C.3     1  UNL1        0.0761
      5 C         142.2125  138.5376  165.5193 C.3     1  UNL1        0.0212
      6 C         143.4523  138.7365  164.6988 C.3     1  UNL1        0.0172
      7 C         143.7198  140.0641  164.0538 C.3     1  UNL1        0.0509
      8 N         144.9597  140.2629  163.2333 N.3     1  UNL1       -0.3222
      9 C         142.7475  141.1927  164.2293 C.3     1  UNL1        0.0172
     10 C         141.5077  140.9938  165.0498 C.3     1  UNL1        0.0212
     11 H         145.5016  139.3989  163.2211 H       1  UNL1        0.1188
     12 H         145.5210  141.0106  163.6411 H       1  UNL1        0.1188
     13 C         137.9450  140.0954  160.7140 C.3     1  UNL1        0.1321
     14 N         138.3031  139.4039  161.9960 N.ar    1  UNL1       -0.3057
     15 C         138.8388  138.0087  162.1255 C.ar    1  UNL1        0.1787
     16 N         139.0552  137.7287  163.5831 N.ar    1  UNL1       -0.2192
     17 C         138.6533  138.9507  164.3545 C.ar    1  UNL1        0.1535
     18 C         138.1885  139.9861  163.3737 C.ar    1  UNL1        0.1012
     19 C         140.0539  139.6262  168.0059 C.3     1  UNL1        0.1204
     20 C         140.8852  140.7164  168.6146 C.ar    1  UNL1       -0.0015
     21 C         142.3546  140.5069  168.8313 C.ar    1  UNL1       -0.0026
     22 C         143.1858  141.5971  169.4399 C.ar    1  UNL1        0.0006
     23 C         142.5477  142.8968  169.8319 C.ar    1  UNL1        0.0114
     24 C         141.0783  143.1063  169.6152 C.ar    1  UNL1        0.0574
     25 CL        140.4402  144.4060  170.0071 Cl      1  UNL1       -0.0823
     26 C         140.2471  142.0161  169.0065 C.ar    1  UNL1        0.0088
@<TRIPOS>BOND
     1    13    14    1
     2    14    15   ar
     3    15    16   ar
     4    16    17   ar
     5    17     1    1
     6     1     2    2
     7     1     3   am
     8     3    19    1
     9    19    20    1
    10    20    21   ar
    11    21    22   ar
    12    22    23   ar
    13    23    24   ar
    14    24    25    1
    15    24    26   ar
    16     4     3    1
    17     4     5    1
    18     5     6    1
    19     6     7    1
    20     7     8    1
    21     7     9    1
    22     9    10    1
    23    17    18   ar
    24    18    14   ar
    25    26    20   ar
    26    10     4    1
    27     8    11    1
    28     8    12    1
@<TRIPOS>MOLECULE
*****
 26 28 0 0 0
SMALL
GASTEIGER

@<TRIPOS>ATOM
      1 C         140.2031  139.6200  165.5780 C.2     1  UNL1        0.2685
      2 O         138.9909  139.1674  166.3366 O.2     1  UNL1       -0.2682
      3 N         141.4737  139.9323  166.3115 N.am    1  UNL1       -0.2723
      4 C         142.6859  140.3850  165.5528 C.3     1  UNL1        0.0761
      5 C         142.9468  141.8495  165.3607 C.3     1  UNL1        0.0212
      6 C         144.1590  142.3021  164.6019 C.3     1  UNL1        0.0172
      7 C         145.1103  141.2902  164.0353 C.3     1  UNL1        0.0509
      8 N         146.3226  141.7429  163.2766 N.3     1  UNL1       -0.3222
      9 C         144.8494  139.8256  164.2275 C.3     1  UNL1        0.0172
     10 C         143.6372  139.3730  164.9862 C.3     1  UNL1        0.0212
     11 H         146.3418  142.7621  163.2432 H       1  UNL1        0.1188
     12 H         146.2873  141.3722  162.3270 H       1  UNL1        0.1188
     13 C         140.1064  138.4689  160.4256 C.3     1  UNL1        0.1321
     14 N         140.1003  139.2313  161.7174 N.ar    1  UNL1       -0.3057
     15 C         140.0097  140.7217  161.8612 C.ar    1  UNL1        0.1787
     16 N         140.0372  141.0487  163.3248 N.ar    1  UNL1       -0.2192
     17 C         140.1448  139.7605  164.0856 C.ar    1  UNL1        0.1535
     18 C         140.1838  138.6372  163.0923 C.ar    1  UNL1        0.1012
     19 C         141.5321  139.7919  167.8038 C.3     1  UNL1        0.1204
     20 C         141.8733  140.9782  168.6560 C.ar    1  UNL1       -0.0015
     21 C         143.2396  141.0974  169.2632 C.ar    1  UNL1       -0.0026
     22 C         143.5807  142.2837  170.1154 C.ar    1  UNL1        0.0006
     23 C         142.5555  143.3509  170.3603 C.ar    1  UNL1        0.0114
     24 C         141.1891  143.2317  169.7530 C.ar    1  UNL1        0.0574
     25 CL        140.1638  144.2989  169.9979 Cl      1  UNL1       -0.0823
     26 C         140.8480  142.0454  168.9009 C.ar    1  UNL1        0.0088
@<TRIPOS>BOND
     1    13    14    1
     2    14    15   ar
     3    15    16   ar
     4    16    17   ar
     5    17     1    1
     6     1     2    2
     7     1     3   am
     8     3    19    1
     9    19    20    1
    10    20    21   ar
    11    21    22   ar
    12    22    23   ar
    13    23    24   ar
    14    24    25    1
    15    24    26   ar
    16     4     3    1
    17     4     5    1
    18     5     6    1
    19     6     7    1
    20     7     8    1
    21     7     9    1
    22     9    10    1
    23    17    18   ar
    24    18    14   ar
    25    26    20   ar
    26    10     4    1
    27     8    11    1
    28     8    12    1
@<TRIPOS>MOLECULE
*****
 26 28 0 0 0
SMALL
GASTEIGER

@<TRIPOS>ATOM
      1 C         141.2439  141.0392  163.8594 C.2     1  UNL1        0.2685
      2 O         142.4223  141.7785  163.2985 O.2     1  UNL1       -0.2682
      3 N         141.3746  140.2902  165.1524 N.am    1  UNL1       -0.2723
      4 C         140.1961  139.5509  165.7134 C.3     1  UNL1        0.0761
      5 C         139.8009  138.2230  165.1387 C.3     1  UNL1        0.0212
      6 C         138.6225  137.4837  165.6996 C.3     1  UNL1        0.0172
      7 C         137.8391  138.0725  166.8353 C.3     1  UNL1        0.0509
      8 N         136.6606  137.3332  167.3962 N.3     1  UNL1       -0.3222
      9 C         138.2342  139.4004  167.4100 C.3     1  UNL1        0.0172
     10 C         139.4127  140.1397  166.8491 C.3     1  UNL1        0.0212
     11 H         136.5372  136.4562  166.8903 H       1  UNL1        0.1188
     12 H         135.8216  137.9046  167.2959 H       1  UNL1        0.1188
     13 C         137.4161  139.9155  160.4001 C.3     1  UNL1        0.1321
     14 N         138.1752  140.5324  161.5373 N.ar    1  UNL1       -0.3057
     15 C         137.6647  141.5954  162.4644 C.ar    1  UNL1        0.1787
     16 N         138.7521  141.9146  163.4472 N.ar    1  UNL1       -0.2192
     17 C         139.9346  141.0490  163.1274 C.ar    1  UNL1        0.1535
     18 C         139.5782  140.1947  161.9470 C.ar    1  UNL1        0.1012
     19 C         142.6837  140.2804  165.8845 C.3     1  UNL1        0.1204
     20 C         142.7055  140.3387  167.3833 C.ar    1  UNL1       -0.0015
     21 C         142.6948  139.0700  168.1834 C.ar    1  UNL1       -0.0026
     22 C         142.7165  139.1283  169.6821 C.ar    1  UNL1        0.0006
     23 C         142.7489  140.4553  170.3806 C.ar    1  UNL1        0.0114
     24 C         142.7596  141.7240  169.5805 C.ar    1  UNL1        0.0574
     25 CL        142.7920  143.0510  170.2791 Cl      1  UNL1       -0.0823
     26 C         142.7379  141.6657  168.0818 C.ar    1  UNL1        0.0088
@<TRIPOS>BOND
     1    13    14    1
     2    14    15   ar
     3    15    16   ar
     4    16    17   ar
     5    17     1    1
     6     1     2    2
     7     1     3   am
     8     3    19    1
     9    19    20    1
    10    20    21   ar
    11    21    22   ar
    12    22    23   ar
    13    23    24   ar
    14    24    25    1
    15    24    26   ar
    16     4     3    1
    17     4     5    1
    18     5     6    1
    19     6     7    1
    20     7     8    1
    21     7     9    1
    22     9    10    1
    23    17    18   ar
    24    18    14   ar
    25    26    20   ar
    26    10     4    1
    27     8    11    1
    28     8    12    1
@<TRIPOS>MOLECULE
*****
 26 28 0 0 0
SMALL
GASTEIGER

@<TRIPOS>ATOM
      1 C         140.2149  139.2317  165.1315 C.2     1  UNL1        0.2685
      2 O         138.9767  138.7085  165.7972 O.2     1  UNL1       -0.2682
      3 N         141.3844  139.6707  165.9619 N.am    1  UNL1       -0.2723
      4 C         142.6226  140.1940  165.2962 C.3     1  UNL1        0.0761
      5 C         143.7356  139.2545  164.9380 C.3     1  UNL1        0.0212
      6 C         144.9738  139.7778  164.2723 C.3     1  UNL1        0.0172
      7 C         145.0988  141.2406  163.9649 C.3     1  UNL1        0.0509
      8 N         146.3370  141.7639  163.2992 N.3     1  UNL1       -0.3222
      9 C         143.9858  142.1801  164.3231 C.3     1  UNL1        0.0172
     10 C         142.7477  141.6568  164.9888 C.3     1  UNL1        0.0212
     11 H         146.9834  140.9933  163.1295 H       1  UNL1        0.1188
     12 H         146.7823  142.4542  163.9038 H       1  UNL1        0.1188
     13 C         139.8034  141.0131  160.1779 C.3     1  UNL1        0.1321
     14 N         140.0945  140.1348  161.3585 N.ar    1  UNL1       -0.3057
     15 C         140.6843  138.7565  161.3080 C.ar    1  UNL1        0.1787
     16 N         140.8012  138.2505  162.7152 N.ar    1  UNL1       -0.2192
     17 C         140.2836  139.3160  163.6354 C.ar    1  UNL1        0.1535
     18 C         139.8468  140.4806  162.7970 C.ar    1  UNL1        0.1012
     19 C         141.3157  139.5865  167.4580 C.3     1  UNL1        0.1204
     20 C         141.5444  140.8138  168.2896 C.ar    1  UNL1       -0.0015
     21 C         140.3932  141.7116  168.6339 C.ar    1  UNL1       -0.0026
     22 C         140.6219  142.9389  169.4655 C.ar    1  UNL1        0.0006
     23 C         142.0018  143.2683  169.9527 C.ar    1  UNL1        0.0114
     24 C         143.1530  142.3705  169.6083 C.ar    1  UNL1        0.0574
     25 CL        144.5329  142.6999  170.0955 Cl      1  UNL1       -0.0823
     26 C         142.9243  141.1433  168.7768 C.ar    1  UNL1        0.0088
@<TRIPOS>BOND
     1    13    14    1
     2    14    15   ar
     3    15    16   ar
     4    16    17   ar
     5    17     1    1
     6     1     2    2
     7     1     3   am
     8     3    19    1
     9    19    20    1
    10    20    21   ar
    11    21    22   ar
    12    22    23   ar
    13    23    24   ar
    14    24    25    1
    15    24    26   ar
    16     4     3    1
    17     4     5    1
    18     5     6    1
    19     6     7    1
    20     7     8    1
    21     7     9    1
    22     9    10    1
    23    17    18   ar
    24    18    14   ar
    25    26    20   ar
    26    10     4    1
    27     8    11    1
    28     8    12    1
@<TRIPOS>MOLECULE
*****
 26 28 0 0 0
SMALL
GASTEIGER

@<TRIPOS>ATOM
      1 C         139.7012  139.8973  168.4275 C.2     1  UNL1        0.2685
      2 O         138.4186  139.6471  169.1640 O.2     1  UNL1       -0.2682
      3 N         139.7903  139.6109  166.9578 N.am    1  UNL1       -0.2723
      4 C         141.0730  139.8612  166.2214 C.3     1  UNL1        0.0761
      5 C         142.0376  138.7358  165.9913 C.3     1  UNL1        0.0212
      6 C         143.3201  138.9862  165.2549 C.3     1  UNL1        0.0172
      7 C         143.6381  140.3619  164.7486 C.3     1  UNL1        0.0509
      8 N         144.9208  140.6122  164.0122 N.3     1  UNL1       -0.3222
      9 C         142.6735  141.4873  164.9788 C.3     1  UNL1        0.0172
     10 C         141.3910  141.2369  165.7152 C.3     1  UNL1        0.0212
     11 H         145.4508  139.7431  163.9475 H       1  UNL1        0.1188
     12 H         145.4706  141.3092  164.5143 H       1  UNL1        0.1188
     13 C         143.1489  143.2152  170.6605 C.3     1  UNL1        0.1321
     14 N         142.4794  141.9591  170.1872 N.ar    1  UNL1       -0.3057
     15 C         142.9829  140.5609  170.3911 C.ar    1  UNL1        0.1787
     16 N         142.0035  139.6184  169.7568 N.ar    1  UNL1       -0.2192
     17 C         140.8946  140.4341  169.1608 C.ar    1  UNL1        0.1535
     18 C         141.1887  141.8807  169.4268 C.ar    1  UNL1        0.1012
     19 C         138.5969  139.0742  166.2246 C.3     1  UNL1        0.1204
     20 C         138.5671  139.0934  164.7249 C.ar    1  UNL1       -0.0015
     21 C         138.9447  137.8649  163.9515 C.ar    1  UNL1       -0.0026
     22 C         138.9148  137.8841  162.4520 C.ar    1  UNL1        0.0006
     23 C         138.5073  139.1317  161.7258 C.ar    1  UNL1        0.0114
     24 C         138.1297  140.3602  162.4993 C.ar    1  UNL1        0.0574
     25 CL        137.7222  141.6079  161.7731 Cl      1  UNL1       -0.0823
     26 C         138.1596  140.3410  163.9988 C.ar    1  UNL1        0.0088
@<TRIPOS>BOND
     1    13    14    1
     2    14    15   ar
     3    15    16   ar
     4    16    17   ar
     5    17     1    1
     6     1     2    2
     7     1     3   am
     8     3    19    1
     9    19    20    1
    10    20    21   ar
    11    21    22   ar
    12    22    23   ar
    13    23    24   ar
    14    24    25    1
    15    24    26   ar
    16     4     3    1
    17     4     5    1
    18     5     6    1
    19     6     7    1
    20     7     8    1
    21     7     9    1
    22     9    10    1
    23    17    18   ar
    24    18    14   ar
    25    26    20   ar
    26    10     4    1
    27     8    11    1
    28     8    12    1
@<TRIPOS>MOLECULE
*****
 26 28 0 0 0
SMALL
GASTEIGER

@<TRIPOS>ATOM
      1 C         139.4042  144.3581  162.2377 C.2     1  UNL1        0.2685
      2 O         137.9969  144.8311  162.4515 O.2     1  UNL1       -0.2682
      3 N         140.2375  143.9297  163.4091 N.am    1  UNL1       -0.2723
      4 C         141.6449  143.4567  163.1953 C.3     1  UNL1        0.0761
      5 C         142.7771  144.4404  163.2103 C.3     1  UNL1        0.0212
      6 C         144.1844  143.9674  162.9965 C.3     1  UNL1        0.0172
      7 C         144.4595  142.5107  162.7677 C.3     1  UNL1        0.0509
      8 N         145.8669  142.0377  162.5539 N.3     1  UNL1       -0.3222
      9 C         143.3272  141.5270  162.7526 C.3     1  UNL1        0.0172
     10 C         141.9199  142.0000  162.9664 C.3     1  UNL1        0.0212
     11 H         146.5031  142.8338  162.5957 H       1  UNL1        0.1188
     12 H         145.9404  141.5914  161.6397 H       1  UNL1        0.1188
     13 C         141.8198  145.7567  157.7555 C.3     1  UNL1        0.1321
     14 N         141.0886  144.9565  158.7924 N.ar    1  UNL1       -0.3057
     15 C         140.6347  143.5339  158.6500 C.ar    1  UNL1        0.1787
     16 N         139.9485  143.1366  159.9233 N.ar    1  UNL1       -0.2192
     17 C         139.9783  144.3136  160.8526 C.ar    1  UNL1        0.1535
     18 C         140.6829  145.4384  160.1537 C.ar    1  UNL1        0.1012
     19 C         139.6635  143.9742  164.7942 C.3     1  UNL1        0.1204
     20 C         139.7043  142.7518  165.6626 C.ar    1  UNL1       -0.0015
     21 C         140.4922  142.7643  166.9388 C.ar    1  UNL1       -0.0026
     22 C         140.5330  141.5420  167.8071 C.ar    1  UNL1        0.0006
     23 C         139.7857  140.3070  167.3992 C.ar    1  UNL1        0.0114
     24 C         138.9977  140.2944  166.1230 C.ar    1  UNL1        0.0574
     25 CL        138.2504  139.0594  165.7151 Cl      1  UNL1       -0.0823
     26 C         138.9570  141.5168  165.2547 C.ar    1  UNL1        0.0088
@<TRIPOS>BOND
     1    13    14    1
     2    14    15   ar
     3    15    16   ar
     4    16    17   ar
     5    17     1    1
     6     1     2    2
     7     1     3   am
     8     3    19    1
     9    19    20    1
    10    20    21   ar
    11    21    22   ar
    12    22    23   ar
    13    23    24   ar
    14    24    25    1
    15    24    26   ar
    16     4     3    1
    17     4     5    1
    18     5     6    1
    19     6     7    1
    20     7     8    1
    21     7     9    1
    22     9    10    1
    23    17    18   ar
    24    18    14   ar
    25    26    20   ar
    26    10     4    1
    27     8    11    1
    28     8    12    1
