@<TRIPOS>MOLECULE
*****
 33 37 0 0 0
SMALL
GASTEIGER

@<TRIPOS>ATOM
      1 N         142.2269  138.7148  157.1455 N.ar    1  UNL1       -0.2494
      2 N         143.5714  139.3002  157.4610 N.ar    1  UNL1       -0.1677
      3 C         143.5949  139.6470  158.9202 C.ar    1  UNL1        0.1216
      4 C         142.2650  139.2760  159.5064 C.ar    1  UNL1        0.0396
      5 C         141.7148  139.3884  160.8973 C.ar    1  UNL1        0.0207
      6 C         140.3189  138.9245  161.1913 C.ar    1  UNL1        0.0670
      7 C         139.4734  138.3483  160.0945 C.ar    1  UNL1        0.0191
      8 C         140.0237  138.2360  158.7036 C.ar    1  UNL1        0.0203
      9 C         141.4195  138.6998  158.4096 C.ar    1  UNL1        0.0795
     10 N         139.7686  139.0369  162.5822 N.ar    1  UNL1       -0.2729
     11 C         138.9094  140.2080  162.9565 C.ar    1  UNL1        0.0860
     12 C         138.3591  140.3204  164.3473 C.ar    1  UNL1        0.0561
     13 C         138.6679  139.2616  165.3640 C.ar    1  UNL1        0.1453
     14 C         139.5271  138.0904  164.9897 C.ar    1  UNL1        0.0980
     15 C         140.0775  137.9780  163.5988 C.ar    1  UNL1        0.2679
     16 O         140.9367  136.8068  163.2245 O.2     1  UNL1       -0.2665
     17 O         138.1176  139.3740  166.7548 O.3     1  UNL1       -0.4704
     18 C         139.0492  139.4012  167.9301 C.3     1  UNL1        0.2320
     19 C         139.5498  140.7120  168.4601 C.ar    1  UNL1        0.0212
     20 C         140.3078  141.6440  167.5618 C.ar    1  UNL1       -0.0007
     21 C         140.8084  142.9549  168.0919 C.ar    1  UNL1       -0.0002
     22 C         140.5511  143.3338  169.5202 C.ar    1  UNL1       -0.0000
     23 C         139.7931  142.4018  170.4185 C.ar    1  UNL1       -0.0002
     24 C         139.2925  141.0910  169.8885 C.ar    1  UNL1       -0.0007
     25 C         141.7699  138.2295  155.8017 C.3     1  UNL1        0.1447
     26 C         141.0664  136.9101  155.6802 C.3     1  UNL1        0.0988
     27 C         143.3362  134.0508  156.9983 C.3     1  UNL1        0.1326
     28 C         142.4972  133.3158  155.9953 C.3     1  UNL1        0.0483
     29 C         141.5448  134.2975  155.3795 C.3     1  UNL1        0.0748
     30 N         141.7952  135.6392  156.0018 N.3     1  UNL1       -0.2689
     31 C         142.9024  135.4867  157.0023 C.3     1  UNL1        0.1021
     32 C         144.8053  132.0159  157.6702 C.3     1  UNL1        0.1741
     33 O         144.4190  133.4545  157.8480 O.3     1  UNL1       -0.3521
@<TRIPOS>BOND
     1    32    33    1
     2    27    33    1
     3    27    28    1
     4    28    29    1
     5    29    30    1
     6    30    26    1
     7    26    25    1
     8    25     1    1
     9     1     2   ar
    10     2     3   ar
    11     3     4   ar
    12     4     5   ar
    13     5     6   ar
    14     6    10    1
    15    10    11   ar
    16    11    12   ar
    17    12    13   ar
    18    13    17    1
    19    17    18    1
    20    18    19    1
    21    19    20   ar
    22    20    21   ar
    23    21    22   ar
    24    22    23   ar
    25    23    24   ar
    26    13    14   ar
    27    14    15   ar
    28    15    16    2
    29     6     7   ar
    30     7     8   ar
    31     8     9   ar
    32    30    31    1
    33    31    27    1
    34     9     1   ar
    35     9     4   ar
    36    15    10   ar
    37    24    19   ar
@<TRIPOS>MOLECULE
*****
 33 37 0 0 0
SMALL
GASTEIGER

@<TRIPOS>ATOM
      1 N         140.0894  144.8040  156.7190 N.ar    1  UNL1       -0.2494
      2 N         139.9193  143.4066  156.2010 N.ar    1  UNL1       -0.1677
      3 C         139.8660  142.4790  157.3785 C.ar    1  UNL1        0.1216
      4 C         140.0032  143.3031  158.6244 C.ar    1  UNL1        0.0396
      5 C         140.0203  142.9307  160.0773 C.ar    1  UNL1        0.0207
      6 C         140.1754  143.9952  161.1226 C.ar    1  UNL1        0.0670
      7 C         140.3135  145.4321  160.7149 C.ar    1  UNL1        0.0191
      8 C         140.2964  145.8046  159.2620 C.ar    1  UNL1        0.0203
      9 C         140.1413  144.7400  158.2168 C.ar    1  UNL1        0.0795
     10 N         140.1925  143.6228  162.5756 N.ar    1  UNL1       -0.2729
     11 C         141.4867  143.2609  163.2419 C.ar    1  UNL1        0.0860
     12 C         141.5038  142.8886  164.6948 C.ar    1  UNL1        0.0561
     13 C         140.2266  142.8781  165.4815 C.ar    1  UNL1        0.1453
     14 C         138.9324  143.2400  164.8152 C.ar    1  UNL1        0.0980
     15 C         138.9153  143.6123  163.3622 C.ar    1  UNL1        0.2679
     16 O         137.6211  143.9742  162.6958 O.2     1  UNL1       -0.2665
     17 O         140.2437  142.5057  166.9344 O.3     1  UNL1       -0.4704
     18 C         140.6350  141.1181  167.3485 C.3     1  UNL1        0.2320
     19 C         140.0040  139.9309  166.6833 C.ar    1  UNL1        0.0212
     20 C         138.6383  139.4741  167.1029 C.ar    1  UNL1       -0.0007
     21 C         138.0073  138.2869  166.4377 C.ar    1  UNL1       -0.0002
     22 C         138.7421  137.5565  165.3530 C.ar    1  UNL1       -0.0000
     23 C         140.1078  138.0133  164.9334 C.ar    1  UNL1       -0.0002
     24 C         140.7388  139.2005  165.5985 C.ar    1  UNL1       -0.0007
     25 C         140.1900  146.0471  155.8857 C.3     1  UNL1        0.1447
     26 C         138.9631  146.8633  155.6050 C.3     1  UNL1        0.0988
     27 C         138.8964  150.7134  155.1181 C.3     1  UNL1        0.1326
     28 C         139.7056  150.2850  153.9299 C.3     1  UNL1        0.0483
     29 C         139.8291  148.7906  153.9677 C.3     1  UNL1        0.0748
     30 N         139.0962  148.2954  155.1792 N.3     1  UNL1       -0.2689
     31 C         138.5198  149.4838  155.8902 C.3     1  UNL1        0.1021
     32 C         138.5276  153.1869  154.4135 C.3     1  UNL1        0.1741
     33 O         138.5285  152.1239  155.4719 O.3     1  UNL1       -0.3521
@<TRIPOS>BOND
     1    32    33    1
     2    27    33    1
     3    27    28    1
     4    28    29    1
     5    29    30    1
     6    30    26    1
     7    26    25    1
     8    25     1    1
     9     1     2   ar
    10     2     3   ar
    11     3     4   ar
    12     4     5   ar
    13     5     6   ar
    14     6    10    1
    15    10    11   ar
    16    11    12   ar
    17    12    13   ar
    18    13    17    1
    19    17    18    1
    20    18    19    1
    21    19    20   ar
    22    20    21   ar
    23    21    22   ar
    24    22    23   ar
    25    23    24   ar
    26    13    14   ar
    27    14    15   ar
    28    15    16    2
    29     6     7   ar
    30     7     8   ar
    31     8     9   ar
    32    30    31    1
    33    31    27    1
    34     9     1   ar
    35     9     4   ar
    36    15    10   ar
    37    24    19   ar
@<TRIPOS>MOLECULE
*****
 33 37 0 0 0
SMALL
GASTEIGER

@<TRIPOS>ATOM
      1 N         140.3361  145.2291  160.3126 N.ar    1  UNL1       -0.2494
      2 N         139.3680  146.0926  161.0657 N.ar    1  UNL1       -0.1677
      3 C         139.3079  145.5966  162.4801 C.ar    1  UNL1        0.1216
      4 C         140.2388  144.4267  162.6010 C.ar    1  UNL1        0.0396
      5 C         140.5899  143.5388  163.7579 C.ar    1  UNL1        0.0207
      6 C         141.5765  142.4239  163.5752 C.ar    1  UNL1        0.0670
      7 C         142.2119  142.1967  162.2355 C.ar    1  UNL1        0.0191
      8 C         141.8608  143.0845  161.0787 C.ar    1  UNL1        0.0203
      9 C         140.8743  144.1995  161.2614 C.ar    1  UNL1        0.0795
     10 N         141.9277  141.5359  164.7321 N.ar    1  UNL1       -0.2729
     11 C         141.1556  140.2718  164.9687 C.ar    1  UNL1        0.0860
     12 C         141.5067  139.3839  166.1255 C.ar    1  UNL1        0.0561
     13 C         142.6299  139.7601  167.0458 C.ar    1  UNL1        0.1453
     14 C         143.4020  141.0242  166.8093 C.ar    1  UNL1        0.0980
     15 C         143.0508  141.9122  165.6523 C.ar    1  UNL1        0.2679
     16 O         143.8229  143.1763  165.4158 O.2     1  UNL1       -0.2665
     17 O         142.9811  138.8722  168.2027 O.3     1  UNL1       -0.4704
     18 C         142.4836  139.2016  169.5789 C.3     1  UNL1        0.2320
     19 C         141.6803  140.4475  169.8078 C.ar    1  UNL1        0.0212
     20 C         142.3752  141.7480  170.0832 C.ar    1  UNL1       -0.0007
     21 C         141.5718  142.9939  170.3121 C.ar    1  UNL1       -0.0002
     22 C         140.0736  142.9393  170.2657 C.ar    1  UNL1       -0.0000
     23 C         139.3787  141.6388  169.9904 C.ar    1  UNL1       -0.0002
     24 C         140.1820  140.3929  169.7614 C.ar    1  UNL1       -0.0007
     25 C         140.7018  145.3704  158.8647 C.3     1  UNL1        0.1447
     26 C         140.0045  144.5374  157.8302 C.3     1  UNL1        0.0988
     27 C         138.5806  141.0395  158.7263 C.3     1  UNL1        0.1326
     28 C         139.9771  140.6856  158.3086 C.3     1  UNL1        0.0483
     29 C         140.6805  141.9529  157.9221 C.3     1  UNL1        0.0748
     30 N         139.7187  143.0899  158.1009 N.3     1  UNL1       -0.2689
     31 C         138.4208  142.5255  158.5979 C.3     1  UNL1        0.1021
     32 C         137.4737  139.6631  160.6317 C.3     1  UNL1        0.1741
     33 O         137.5285  140.0765  159.1908 O.3     1  UNL1       -0.3521
@<TRIPOS>BOND
     1    32    33    1
     2    27    33    1
     3    27    28    1
     4    28    29    1
     5    29    30    1
     6    30    26    1
     7    26    25    1
     8    25     1    1
     9     1     2   ar
    10     2     3   ar
    11     3     4   ar
    12     4     5   ar
    13     5     6   ar
    14     6    10    1
    15    10    11   ar
    16    11    12   ar
    17    12    13   ar
    18    13    17    1
    19    17    18    1
    20    18    19    1
    21    19    20   ar
    22    20    21   ar
    23    21    22   ar
    24    22    23   ar
    25    23    24   ar
    26    13    14   ar
    27    14    15   ar
    28    15    16    2
    29     6     7   ar
    30     7     8   ar
    31     8     9   ar
    32    30    31    1
    33    31    27    1
    34     9     1   ar
    35     9     4   ar
    36    15    10   ar
    37    24    19   ar
@<TRIPOS>MOLECULE
*****
 33 37 0 0 0
SMALL
GASTEIGER

@<TRIPOS>ATOM
      1 N         139.9631  144.8730  163.2605 N.ar    1  UNL1       -0.2494
      2 N         138.4853  144.7789  163.4998 N.ar    1  UNL1       -0.1677
      3 C         138.2584  143.8120  164.6238 C.ar    1  UNL1        0.1216
      4 C         139.5959  143.3084  165.0793 C.ar    1  UNL1        0.0396
      5 C         139.9906  142.3376  166.1524 C.ar    1  UNL1        0.0207
      6 C         141.4388  142.0224  166.3830 C.ar    1  UNL1        0.0670
      7 C         142.4924  142.6781  165.5404 C.ar    1  UNL1        0.0191
      8 C         142.0978  143.6490  164.4673 C.ar    1  UNL1        0.0203
      9 C         140.6495  143.9642  164.2367 C.ar    1  UNL1        0.0795
     10 N         141.8335  141.0515  167.4561 N.ar    1  UNL1       -0.2729
     11 C         142.4013  139.7135  167.0851 C.ar    1  UNL1        0.0860
     12 C         142.7960  138.7426  168.1582 C.ar    1  UNL1        0.0561
     13 C         142.6230  139.1097  169.6023 C.ar    1  UNL1        0.1453
     14 C         142.0552  140.4476  169.9733 C.ar    1  UNL1        0.0980
     15 C         141.6605  141.4185  168.9002 C.ar    1  UNL1        0.2679
     16 O         141.0928  142.7565  169.2711 O.2     1  UNL1       -0.2665
     17 O         143.0177  138.1388  170.6754 O.3     1  UNL1       -0.4704
     18 C         143.9392  136.9997  170.3542 C.3     1  UNL1        0.2320
     19 C         144.7691  136.3778  171.4379 C.ar    1  UNL1        0.0212
     20 C         144.5828  134.9314  171.7887 C.ar    1  UNL1       -0.0007
     21 C         145.4127  134.3095  172.8725 C.ar    1  UNL1       -0.0002
     22 C         146.4289  135.1341  173.6055 C.ar    1  UNL1       -0.0000
     23 C         146.6152  136.5806  173.2548 C.ar    1  UNL1       -0.0002
     24 C         145.7854  137.2024  172.1710 C.ar    1  UNL1       -0.0007
     25 C         140.6364  145.7260  162.2266 C.3     1  UNL1        0.1447
     26 C         139.8856  146.1495  160.9990 C.3     1  UNL1        0.0988
     27 C         140.1562  144.6433  157.4320 C.3     1  UNL1        0.1326
     28 C         139.9333  143.4074  158.2524 C.3     1  UNL1        0.0483
     29 C         139.8048  143.8213  159.6884 C.3     1  UNL1        0.0748
     30 N         139.9483  145.3129  159.7556 N.3     1  UNL1       -0.2689
     31 C         140.1654  145.8209  158.3610 C.3     1  UNL1        0.1021
     32 C         140.5100  146.0130  155.2528 C.3     1  UNL1        0.1741
     33 O         140.3379  144.6928  155.9439 O.3     1  UNL1       -0.3521
@<TRIPOS>BOND
     1    32    33    1
     2    27    33    1
     3    27    28    1
     4    28    29    1
     5    29    30    1
     6    30    26    1
     7    26    25    1
     8    25     1    1
     9     1     2   ar
    10     2     3   ar
    11     3     4   ar
    12     4     5   ar
    13     5     6   ar
    14     6    10    1
    15    10    11   ar
    16    11    12   ar
    17    12    13   ar
    18    13    17    1
    19    17    18    1
    20    18    19    1
    21    19    20   ar
    22    20    21   ar
    23    21    22   ar
    24    22    23   ar
    25    23    24   ar
    26    13    14   ar
    27    14    15   ar
    28    15    16    2
    29     6     7   ar
    30     7     8   ar
    31     8     9   ar
    32    30    31    1
    33    31    27    1
    34     9     1   ar
    35     9     4   ar
    36    15    10   ar
    37    24    19   ar
@<TRIPOS>MOLECULE
*****
 33 37 0 0 0
SMALL
GASTEIGER

@<TRIPOS>ATOM
      1 N         138.1600  142.8391  162.6762 N.ar    1  UNL1       -0.2494
      2 N         137.3302  141.8481  163.4373 N.ar    1  UNL1       -0.1677
      3 C         137.5547  140.4940  162.8323 C.ar    1  UNL1        0.1216
      4 C         138.5231  140.6481  161.6972 C.ar    1  UNL1        0.0396
      5 C         139.1126  139.6560  160.7391 C.ar    1  UNL1        0.0207
      6 C         140.0763  140.1133  159.6844 C.ar    1  UNL1        0.0670
      7 C         140.4503  141.5626  159.5879 C.ar    1  UNL1        0.0191
      8 C         139.8608  142.5548  160.5461 C.ar    1  UNL1        0.0203
      9 C         138.8972  142.0975  161.6007 C.ar    1  UNL1        0.0795
     10 N         140.6658  139.1211  158.7262 N.ar    1  UNL1       -0.2729
     11 C         142.0152  138.5255  158.9991 C.ar    1  UNL1        0.0860
     12 C         142.6048  137.5334  158.0410 C.ar    1  UNL1        0.0561
     13 C         141.8450  137.1368  156.8099 C.ar    1  UNL1        0.1453
     14 C         140.4956  137.7325  156.5370 C.ar    1  UNL1        0.0980
     15 C         139.9061  138.7246  157.4952 C.ar    1  UNL1        0.2679
     16 O         138.5567  139.3202  157.2223 O.2     1  UNL1       -0.2665
     17 O         142.4346  136.1447  155.8517 O.3     1  UNL1       -0.4704
     18 C         142.0782  134.6919  155.9626 C.3     1  UNL1        0.2320
     19 C         143.1295  133.6880  156.3325 C.ar    1  UNL1        0.0212
     20 C         143.8634  133.8155  157.6345 C.ar    1  UNL1       -0.0007
     21 C         144.9147  132.8115  158.0044 C.ar    1  UNL1       -0.0002
     22 C         145.2321  131.6800  157.0723 C.ar    1  UNL1       -0.0000
     23 C         144.4982  131.5524  155.7703 C.ar    1  UNL1       -0.0002
     24 C         143.4470  132.5564  155.4004 C.ar    1  UNL1       -0.0007
     25 C         138.2387  144.3130  162.9435 C.3     1  UNL1        0.1447
     26 C         139.0815  144.8264  164.0732 C.3     1  UNL1        0.0988
     27 C         142.6603  143.4185  164.5978 C.3     1  UNL1        0.1326
     28 C         142.9470  144.6402  163.7761 C.3     1  UNL1        0.0483
     29 C         141.6412  145.3163  163.4796 C.3     1  UNL1        0.0748
     30 N         140.5476  144.5124  164.1180 N.3     1  UNL1       -0.2689
     31 C         141.1773  143.3395  164.8091 C.3     1  UNL1        0.1021
     32 C         143.3932  140.9740  165.0850 C.3     1  UNL1        0.1741
     33 O         143.6779  142.4464  165.1170 O.3     1  UNL1       -0.3521
@<TRIPOS>BOND
     1    32    33    1
     2    27    33    1
     3    27    28    1
     4    28    29    1
     5    29    30    1
     6    30    26    1
     7    26    25    1
     8    25     1    1
     9     1     2   ar
    10     2     3   ar
    11     3     4   ar
    12     4     5   ar
    13     5     6   ar
    14     6    10    1
    15    10    11   ar
    16    11    12   ar
    17    12    13   ar
    18    13    17    1
    19    17    18    1
    20    18    19    1
    21    19    20   ar
    22    20    21   ar
    23    21    22   ar
    24    22    23   ar
    25    23    24   ar
    26    13    14   ar
    27    14    15   ar
    28    15    16    2
    29     6     7   ar
    30     7     8   ar
    31     8     9   ar
    32    30    31    1
    33    31    27    1
    34     9     1   ar
    35     9     4   ar
    36    15    10   ar
    37    24    19   ar
@<TRIPOS>MOLECULE
*****
 33 37 0 0 0
SMALL
GASTEIGER

@<TRIPOS>ATOM
      1 N         136.9696  141.9227  156.2063 N.ar    1  UNL1       -0.2494
      2 N         137.2814  142.9824  155.1914 N.ar    1  UNL1       -0.1677
      3 C         138.3771  143.8451  155.7438 C.ar    1  UNL1        0.1216
      4 C         138.7424  143.3187  157.1000 C.ar    1  UNL1        0.0396
      5 C         139.7548  143.7677  158.1116 C.ar    1  UNL1        0.0207
      6 C         139.8973  143.0285  159.4091 C.ar    1  UNL1        0.0670
      7 C         139.0275  141.8404  159.6949 C.ar    1  UNL1        0.0191
      8 C         138.0150  141.3914  158.6833 C.ar    1  UNL1        0.0203
      9 C         137.8725  142.1306  157.3859 C.ar    1  UNL1        0.0795
     10 N         140.9098  143.4775  160.4208 N.ar    1  UNL1       -0.2729
     11 C         142.3321  143.0127  160.3157 C.ar    1  UNL1        0.0860
     12 C         143.3445  143.4617  161.3273 C.ar    1  UNL1        0.0561
     13 C         142.9347  144.3754  162.4441 C.ar    1  UNL1        0.1453
     14 C         141.5124  144.8403  162.5491 C.ar    1  UNL1        0.0980
     15 C         140.4999  144.3913  161.5375 C.ar    1  UNL1        0.2679
     16 O         139.0776  144.8561  161.6425 O.2     1  UNL1       -0.2665
     17 O         143.9471  144.8244  163.4557 O.3     1  UNL1       -0.4704
     18 C         144.1048  144.0721  164.7438 C.3     1  UNL1        0.2320
     19 C         144.1664  142.5735  164.7344 C.ar    1  UNL1        0.0212
     20 C         143.0979  141.7746  165.4202 C.ar    1  UNL1       -0.0007
     21 C         143.1596  140.2758  165.4108 C.ar    1  UNL1       -0.0002
     22 C         144.2896  139.5760  164.7156 C.ar    1  UNL1       -0.0000
     23 C         145.3580  140.3749  164.0299 C.ar    1  UNL1       -0.0002
     24 C         145.2964  141.8736  164.0392 C.ar    1  UNL1       -0.0007
     25 C         135.9362  140.8445  156.0662 C.3     1  UNL1        0.1447
     26 C         134.5833  141.1705  155.5061 C.3     1  UNL1        0.0988
     27 C         131.0289  140.1629  156.6960 C.3     1  UNL1        0.1326
     28 C         131.8818  139.2462  157.5221 C.3     1  UNL1        0.0483
     29 C         133.3171  139.5121  157.1768 C.3     1  UNL1        0.0748
     30 N         133.3512  140.5931  156.1375 N.3     1  UNL1       -0.2689
     31 C         131.9370  140.9954  155.8403 C.3     1  UNL1        0.1021
     32 C         128.7991  141.0098  155.6659 C.3     1  UNL1        0.1741
     33 O         129.5308  140.2346  156.7214 O.3     1  UNL1       -0.3521
@<TRIPOS>BOND
     1    32    33    1
     2    27    33    1
     3    27    28    1
     4    28    29    1
     5    29    30    1
     6    30    26    1
     7    26    25    1
     8    25     1    1
     9     1     2   ar
    10     2     3   ar
    11     3     4   ar
    12     4     5   ar
    13     5     6   ar
    14     6    10    1
    15    10    11   ar
    16    11    12   ar
    17    12    13   ar
    18    13    17    1
    19    17    18    1
    20    18    19    1
    21    19    20   ar
    22    20    21   ar
    23    21    22   ar
    24    22    23   ar
    25    23    24   ar
    26    13    14   ar
    27    14    15   ar
    28    15    16    2
    29     6     7   ar
    30     7     8   ar
    31     8     9   ar
    32    30    31    1
    33    31    27    1
    34     9     1   ar
    35     9     4   ar
    36    15    10   ar
    37    24    19   ar
@<TRIPOS>MOLECULE
*****
 33 37 0 0 0
SMALL
GASTEIGER

@<TRIPOS>ATOM
      1 N         139.3274  140.2874  164.5023 N.ar    1  UNL1       -0.2494
      2 N         138.7010  139.0127  164.9847 N.ar    1  UNL1       -0.1677
      3 C         138.8281  137.9917  163.8932 C.ar    1  UNL1        0.1216
      4 C         139.5330  138.6354  162.7362 C.ar    1  UNL1        0.0396
      5 C         139.9338  138.1128  161.3885 C.ar    1  UNL1        0.0207
      6 C         140.6432  139.0091  160.4172 C.ar    1  UNL1        0.0670
      7 C         140.9518  140.4279  160.7936 C.ar    1  UNL1        0.0191
      8 C         140.5510  140.9505  162.1413 C.ar    1  UNL1        0.0203
      9 C         139.8416  140.0542  163.1126 C.ar    1  UNL1        0.0795
     10 N         141.0440  138.4866  159.0695 N.ar    1  UNL1       -0.2729
     11 C         142.3977  137.8700  158.8764 C.ar    1  UNL1        0.0860
     12 C         142.7986  137.3475  157.5287 C.ar    1  UNL1        0.0561
     13 C         141.8457  137.4416  156.3740 C.ar    1  UNL1        0.1453
     14 C         140.4919  138.0581  156.5671 C.ar    1  UNL1        0.0980
     15 C         140.0911  138.5807  157.9149 C.ar    1  UNL1        0.2679
     16 O         138.7374  139.1972  158.1080 O.2     1  UNL1       -0.2665
     17 O         142.2465  136.9190  155.0264 O.3     1  UNL1       -0.4704
     18 C         141.6862  135.6197  154.5287 C.3     1  UNL1        0.2320
     19 C         142.2142  134.3214  155.0633 C.ar    1  UNL1        0.0212
     20 C         143.6116  134.2455  155.6031 C.ar    1  UNL1       -0.0007
     21 C         144.1396  132.9472  156.1377 C.ar    1  UNL1       -0.0002
     22 C         143.2702  131.7249  156.1324 C.ar    1  UNL1       -0.0000
     23 C         141.8727  131.8009  155.5926 C.ar    1  UNL1       -0.0002
     24 C         141.3447  133.0991  155.0580 C.ar    1  UNL1       -0.0007
     25 C         139.4229  141.5701  165.2740 C.3     1  UNL1        0.1447
     26 C         138.6669  142.7809  164.8127 C.3     1  UNL1        0.0988
     27 C         139.7899  145.2473  162.0340 C.3     1  UNL1        0.1326
     28 C         140.9103  145.3928  163.0207 C.3     1  UNL1        0.0483
     29 C         140.6260  144.4865  164.1817 C.3     1  UNL1        0.0748
     30 N         139.3299  143.7810  163.9125 N.3     1  UNL1       -0.2689
     31 C         138.8131  144.2512  162.5852 C.3     1  UNL1        0.1021
     32 C         140.2898  145.3941  159.4887 C.3     1  UNL1        0.1741
     33 O         139.6677  145.9710  160.7258 O.3     1  UNL1       -0.3521
@<TRIPOS>BOND
     1    32    33    1
     2    27    33    1
     3    27    28    1
     4    28    29    1
     5    29    30    1
     6    30    26    1
     7    26    25    1
     8    25     1    1
     9     1     2   ar
    10     2     3   ar
    11     3     4   ar
    12     4     5   ar
    13     5     6   ar
    14     6    10    1
    15    10    11   ar
    16    11    12   ar
    17    12    13   ar
    18    13    17    1
    19    17    18    1
    20    18    19    1
    21    19    20   ar
    22    20    21   ar
    23    21    22   ar
    24    22    23   ar
    25    23    24   ar
    26    13    14   ar
    27    14    15   ar
    28    15    16    2
    29     6     7   ar
    30     7     8   ar
    31     8     9   ar
    32    30    31    1
    33    31    27    1
    34     9     1   ar
    35     9     4   ar
    36    15    10   ar
    37    24    19   ar
@<TRIPOS>MOLECULE
*****
 33 37 0 0 0
SMALL
GASTEIGER

@<TRIPOS>ATOM
      1 N         142.0018  141.4165  158.3526 N.ar    1  UNL1       -0.2494
      2 N         142.1321  142.9031  158.5043 N.ar    1  UNL1       -0.1677
      3 C         141.7583  143.2598  159.9125 C.ar    1  UNL1        0.1216
      4 C         141.3971  141.9936  160.6311 C.ar    1  UNL1        0.0396
      5 C         140.9505  141.7309  162.0387 C.ar    1  UNL1        0.0207
      6 C         140.6545  140.3289  162.4823 C.ar    1  UNL1        0.0670
      7 C         140.8050  139.1897  161.5182 C.ar    1  UNL1        0.0191
      8 C         141.2515  139.4524  160.1105 C.ar    1  UNL1        0.0203
      9 C         141.5475  140.8544  159.6670 C.ar    1  UNL1        0.0795
     10 N         140.2080  140.0661  163.8900 N.ar    1  UNL1       -0.2729
     11 C         138.7466  140.0784  164.2279 C.ar    1  UNL1        0.0860
     12 C         138.3000  139.8156  165.6355 C.ar    1  UNL1        0.0561
     13 C         139.3149  139.5405  166.7054 C.ar    1  UNL1        0.1453
     14 C         140.7763  139.5282  166.3675 C.ar    1  UNL1        0.0980
     15 C         141.2228  139.7910  164.9597 C.ar    1  UNL1        0.2679
     16 O         142.6842  139.7787  164.6219 O.2     1  UNL1       -0.2665
     17 O         138.8683  139.2777  168.1130 O.3     1  UNL1       -0.4704
     18 C         139.1266  140.2955  169.1842 C.3     1  UNL1        0.2320
     19 C         140.5209  140.7927  169.4258 C.ar    1  UNL1        0.0212
     20 C         140.8711  142.2198  169.1245 C.ar    1  UNL1       -0.0007
     21 C         142.2655  142.7170  169.3661 C.ar    1  UNL1       -0.0002
     22 C         143.3098  141.7871  169.9090 C.ar    1  UNL1       -0.0000
     23 C         142.9597  140.3600  170.2103 C.ar    1  UNL1       -0.0002
     24 C         141.5653  139.8628  169.9687 C.ar    1  UNL1       -0.0007
     25 C         142.2774  140.6301  157.1053 C.3     1  UNL1        0.1447
     26 C         143.5991  139.9430  156.9286 C.3     1  UNL1        0.0988
     27 C         143.2719  136.0940  156.5498 C.3     1  UNL1        0.1326
     28 C         144.1621  136.4249  155.3887 C.3     1  UNL1        0.0483
     29 C         144.3930  137.9070  155.3893 C.3     1  UNL1        0.0748
     30 N         143.6455  138.4921  156.5508 N.3     1  UNL1       -0.2689
     31 C         142.9526  137.3716  157.2680 C.3     1  UNL1        0.1021
     32 C         143.6859  133.7917  157.6806 C.3     1  UNL1        0.1741
     33 O         142.7862  134.7257  156.9265 O.3     1  UNL1       -0.3521
@<TRIPOS>BOND
     1    32    33    1
     2    27    33    1
     3    27    28    1
     4    28    29    1
     5    29    30    1
     6    30    26    1
     7    26    25    1
     8    25     1    1
     9     1     2   ar
    10     2     3   ar
    11     3     4   ar
    12     4     5   ar
    13     5     6   ar
    14     6    10    1
    15    10    11   ar
    16    11    12   ar
    17    12    13   ar
    18    13    17    1
    19    17    18    1
    20    18    19    1
    21    19    20   ar
    22    20    21   ar
    23    21    22   ar
    24    22    23   ar
    25    23    24   ar
    26    13    14   ar
    27    14    15   ar
    28    15    16    2
    29     6     7   ar
    30     7     8   ar
    31     8     9   ar
    32    30    31    1
    33    31    27    1
    34     9     1   ar
    35     9     4   ar
    36    15    10   ar
    37    24    19   ar
@<TRIPOS>MOLECULE
*****
 33 37 0 0 0
SMALL
GASTEIGER

@<TRIPOS>ATOM
      1 N         142.5287  141.0553  164.9447 N.ar    1  UNL1       -0.2494
      2 N         143.1318  139.8386  165.5819 N.ar    1  UNL1       -0.1677
      3 C         143.1877  138.7535  164.5478 C.ar    1  UNL1        0.1216
      4 C         142.6191  139.2994  163.2716 C.ar    1  UNL1        0.0396
      5 C         142.4195  138.6850  161.9179 C.ar    1  UNL1        0.0207
      6 C         141.8127  139.4932  160.8095 C.ar    1  UNL1        0.0670
      7 C         141.4055  140.9158  161.0549 C.ar    1  UNL1        0.0191
      8 C         141.6050  141.5303  162.4086 C.ar    1  UNL1        0.0203
      9 C         142.2118  140.7221  163.5170 C.ar    1  UNL1        0.0795
     10 N         141.6132  138.8787  159.4557 N.ar    1  UNL1       -0.2729
     11 C         142.8001  138.5438  158.6018 C.ar    1  UNL1        0.0860
     12 C         142.6006  137.9294  157.2481 C.ar    1  UNL1        0.0561
     13 C         141.2142  137.6498  156.7482 C.ar    1  UNL1        0.1453
     14 C         140.0273  137.9848  157.6021 C.ar    1  UNL1        0.0980
     15 C         140.2269  138.5992  158.9559 C.ar    1  UNL1        0.2679
     16 O         139.0400  138.9342  159.8098 O.2     1  UNL1       -0.2665
     17 O         141.0147  137.0354  155.3945 O.3     1  UNL1       -0.4704
     18 C         142.1176  136.2392  154.7623 C.3     1  UNL1        0.2320
     19 C         142.4203  134.8549  155.2544 C.ar    1  UNL1        0.0212
     20 C         141.4251  133.7515  155.0490 C.ar    1  UNL1       -0.0007
     21 C         141.7279  132.3672  155.5411 C.ar    1  UNL1       -0.0002
     22 C         143.0258  132.0864  156.2386 C.ar    1  UNL1       -0.0000
     23 C         144.0210  133.1897  156.4440 C.ar    1  UNL1       -0.0002
     24 C         143.7183  134.5740  155.9519 C.ar    1  UNL1       -0.0007
     25 C         142.2852  142.3738  165.6173 C.3     1  UNL1        0.1447
     26 C         140.9005  142.7470  166.0572 C.3     1  UNL1        0.0988
     27 C         138.8241  144.5113  163.2929 C.3     1  UNL1        0.1326
     28 C         137.8839  143.4191  163.7090 C.3     1  UNL1        0.0483
     29 C         138.5473  142.6253  164.7952 C.3     1  UNL1        0.0748
     30 N         139.8975  143.2268  165.0503 N.3     1  UNL1       -0.2689
     31 C         140.0686  144.3924  164.1219 C.3     1  UNL1        0.1021
     32 C         139.7076  146.3152  161.6450 C.3     1  UNL1        0.1741
     33 O         138.5653  145.5414  162.2337 O.3     1  UNL1       -0.3521
@<TRIPOS>BOND
     1    32    33    1
     2    27    33    1
     3    27    28    1
     4    28    29    1
     5    29    30    1
     6    30    26    1
     7    26    25    1
     8    25     1    1
     9     1     2   ar
    10     2     3   ar
    11     3     4   ar
    12     4     5   ar
    13     5     6   ar
    14     6    10    1
    15    10    11   ar
    16    11    12   ar
    17    12    13   ar
    18    13    17    1
    19    17    18    1
    20    18    19    1
    21    19    20   ar
    22    20    21   ar
    23    21    22   ar
    24    22    23   ar
    25    23    24   ar
    26    13    14   ar
    27    14    15   ar
    28    15    16    2
    29     6     7   ar
    30     7     8   ar
    31     8     9   ar
    32    30    31    1
    33    31    27    1
    34     9     1   ar
    35     9     4   ar
    36    15    10   ar
    37    24    19   ar
