@<TRIPOS>MOLECULE
*****
 24 27 0 0 0
SMALL
GASTEIGER

@<TRIPOS>ATOM
      1 C         139.9952  139.7413  167.1167 C.ar    1  UNL1        0.1036
      2 C         138.5592  139.3591  167.3213 C.ar    1  UNL1        0.1197
      3 N         138.1475  138.4764  166.1806 N.ar    1  UNL1       -0.2234
      4 C         139.3290  138.3130  165.2710 C.ar    1  UNL1        0.1640
      5 C         139.5126  137.5533  163.9907 C.ar    1  UNL1        0.0417
      6 C         140.8381  137.5755  163.2890 C.ar    1  UNL1        0.0390
      7 C         141.9800  138.3573  163.8675 C.ar    1  UNL1        0.1488
      8 N         141.7965  139.1169  165.1478 N.ar    1  UNL1       -0.1489
      9 N         140.4710  139.0948  165.8496 N.ar    1  UNL1       -0.2096
     10 CL        140.5288  144.1200  169.8630 Cl      1  UNL1       -0.0822
     11 C         141.0789  142.8058  169.3937 C.ar    1  UNL1        0.0577
     12 C         142.4457  142.3667  169.8283 C.ar    1  UNL1        0.0114
     13 C         142.9958  141.0525  169.3589 C.ar    1  UNL1        0.0009
     14 C         142.1789  140.1774  168.4551 C.ar    1  UNL1        0.0016
     15 C         140.8121  140.6164  168.0205 C.ar    1  UNL1        0.0201
     16 C         140.2620  141.9307  168.4899 C.ar    1  UNL1        0.0129
     17 N         143.3056  138.3794  163.1657 N.pl3   1  UNL1       -0.3182
     18 H         143.6992  137.5415  162.8306 H       1  UNL1        0.1482
     19 C         144.0314  139.6781  162.9745 C.3     1  UNL1        0.0754
     20 C         145.0383  140.1310  163.9899 C.3     1  UNL1        0.0517
     21 C         145.7642  141.4298  163.7986 C.3     1  UNL1        0.1439
     22 O         145.4831  142.2755  162.5921 O.3     1  UNL1       -0.3537
     23 C         144.4762  141.8225  161.5767 C.3     1  UNL1        0.1439
     24 C         143.7504  140.5238  161.7679 C.3     1  UNL1        0.0517
@<TRIPOS>BOND
     1    10    11    1
     2    11    12   ar
     3    12    13   ar
     4    13    14   ar
     5    14    15   ar
     6    15     1    1
     7     1     2   ar
     8     2     3   ar
     9     3     4   ar
    10     4     5   ar
    11     5     6   ar
    12     6     7   ar
    13     7    17    1
    14    17    19    1
    15    19    20    1
    16    20    21    1
    17    21    22    1
    18    22    23    1
    19    23    24    1
    20     7     8   ar
    21     8     9   ar
    22    15    16   ar
    23    16    11   ar
    24     9     1   ar
    25     9     4   ar
    26    24    19    1
    27    17    18    1
@<TRIPOS>MOLECULE
*****
 24 27 0 0 0
SMALL
GASTEIGER

@<TRIPOS>ATOM
      1 C         142.4649  139.6328  165.4601 C.ar    1  UNL1        0.1036
      2 C         143.5225  138.5756  165.3427 C.ar    1  UNL1        0.1197
      3 N         144.7400  139.2039  164.7319 N.ar    1  UNL1       -0.2234
      4 C         144.4347  140.6493  164.4717 C.ar    1  UNL1        0.1640
      5 C         145.2555  141.7583  163.8831 C.ar    1  UNL1        0.0417
      6 C         144.6701  143.1323  163.7446 C.ar    1  UNL1        0.0390
      7 C         143.2640  143.3974  164.1947 C.ar    1  UNL1        0.1488
      8 N         142.4432  142.2884  164.7833 N.ar    1  UNL1       -0.1489
      9 N         143.0286  140.9143  164.9218 N.ar    1  UNL1       -0.2096
     10 CL        139.0269  140.3198  169.2952 Cl      1  UNL1       -0.0822
     11 C         139.3665  139.7854  167.9355 C.ar    1  UNL1        0.0577
     12 C         138.3270  139.0601  167.1335 C.ar    1  UNL1        0.0114
     13 C         138.6667  138.5258  165.7737 C.ar    1  UNL1        0.0009
     14 C         140.0460  138.7166  165.2159 C.ar    1  UNL1        0.0016
     15 C         141.0856  139.4419  166.0179 C.ar    1  UNL1        0.0201
     16 C         140.7458  139.9763  167.3777 C.ar    1  UNL1        0.0129
     17 N         142.6786  144.7716  164.0562 N.pl3   1  UNL1       -0.3182
     18 H         143.1786  145.5547  164.3816 H       1  UNL1        0.1482
     19 C         141.3315  144.9525  163.4218 C.3     1  UNL1        0.0754
     20 C         141.2291  145.3839  161.9889 C.3     1  UNL1        0.0517
     21 C         139.8819  145.5648  161.3545 C.3     1  UNL1        0.1439
     22 O         138.6371  145.3143  162.1531 O.3     1  UNL1       -0.3537
     23 C         138.7395  144.8829  163.5861 C.3     1  UNL1        0.1439
     24 C         140.0866  144.7020  164.2204 C.3     1  UNL1        0.0517
@<TRIPOS>BOND
     1    10    11    1
     2    11    12   ar
     3    12    13   ar
     4    13    14   ar
     5    14    15   ar
     6    15     1    1
     7     1     2   ar
     8     2     3   ar
     9     3     4   ar
    10     4     5   ar
    11     5     6   ar
    12     6     7   ar
    13     7    17    1
    14    17    19    1
    15    19    20    1
    16    20    21    1
    17    21    22    1
    18    22    23    1
    19    23    24    1
    20     7     8   ar
    21     8     9   ar
    22    15    16   ar
    23    16    11   ar
    24     9     1   ar
    25     9     4   ar
    26    24    19    1
    27    17    18    1
@<TRIPOS>MOLECULE
*****
 24 27 0 0 0
SMALL
GASTEIGER

@<TRIPOS>ATOM
      1 C         141.2340  140.2236  164.0386 C.ar    1  UNL1        0.1036
      2 C         140.4946  139.7205  162.8344 C.ar    1  UNL1        0.1197
      3 N         139.2080  139.1081  163.3028 N.ar    1  UNL1       -0.2234
      4 C         139.1522  139.2326  164.7966 C.ar    1  UNL1        0.1640
      5 C         138.1230  138.8072  165.8015 C.ar    1  UNL1        0.0417
      6 C         138.3459  139.0713  167.2611 C.ar    1  UNL1        0.0390
      7 C         139.5981  139.7607  167.7158 C.ar    1  UNL1        0.1488
      8 N         140.6273  140.1861  166.7110 N.ar    1  UNL1       -0.1489
      9 N         140.4043  139.9220  165.2514 N.ar    1  UNL1       -0.2096
     10 CL        144.0526  144.5888  164.0373 Cl      1  UNL1       -0.0822
     11 C         143.9781  143.0907  164.0308 C.ar    1  UNL1        0.0577
     12 C         145.2381  142.2770  164.0171 C.ar    1  UNL1        0.0114
     13 C         145.1635  140.7789  164.0106 C.ar    1  UNL1        0.0009
     14 C         143.8287  140.0945  164.0178 C.ar    1  UNL1        0.0016
     15 C         142.5687  140.9080  164.0315 C.ar    1  UNL1        0.0201
     16 C         142.6433  142.4062  164.0380 C.ar    1  UNL1        0.0129
     17 N         139.8210  140.0248  169.1755 N.pl3   1  UNL1       -0.3182
     18 H         139.4768  139.3937  169.8481 H       1  UNL1        0.1482
     19 C         140.5683  141.2505  169.6104 C.3     1  UNL1        0.0754
     20 C         141.9732  141.1303  170.1220 C.3     1  UNL1        0.0517
     21 C         142.7205  142.3561  170.5568 C.3     1  UNL1        0.1439
     22 O         142.0629  143.7021  170.4801 O.3     1  UNL1       -0.3537
     23 C         140.6579  143.8223  169.9685 C.3     1  UNL1        0.1439
     24 C         139.9106  142.5966  169.5337 C.3     1  UNL1        0.0517
@<TRIPOS>BOND
     1    10    11    1
     2    11    12   ar
     3    12    13   ar
     4    13    14   ar
     5    14    15   ar
     6    15     1    1
     7     1     2   ar
     8     2     3   ar
     9     3     4   ar
    10     4     5   ar
    11     5     6   ar
    12     6     7   ar
    13     7    17    1
    14    17    19    1
    15    19    20    1
    16    20    21    1
    17    21    22    1
    18    22    23    1
    19    23    24    1
    20     7     8   ar
    21     8     9   ar
    22    15    16   ar
    23    16    11   ar
    24     9     1   ar
    25     9     4   ar
    26    24    19    1
    27    17    18    1
@<TRIPOS>MOLECULE
*****
 24 27 0 0 0
SMALL
GASTEIGER

@<TRIPOS>ATOM
      1 C         142.3472  140.6834  166.5392 C.ar    1  UNL1        0.1036
      2 C         142.7096  140.3577  167.9578 C.ar    1  UNL1        0.1197
      3 N         141.4825  139.8295  168.6400 N.ar    1  UNL1       -0.2234
      4 C         140.3619  139.8287  167.6429 C.ar    1  UNL1        0.1640
      5 C         138.9238  139.4157  167.7496 C.ar    1  UNL1        0.0417
      6 C         138.0203  139.5303  166.5578 C.ar    1  UNL1        0.0390
      7 C         138.5547  140.0580  165.2594 C.ar    1  UNL1        0.1488
      8 N         139.9927  140.4711  165.1528 N.ar    1  UNL1       -0.1489
      9 N         140.8963  140.3564  166.3445 N.ar    1  UNL1       -0.2096
     10 CL        144.0233  144.6865  163.6816 Cl      1  UNL1       -0.0822
     11 C         144.1113  143.2401  164.0690 C.ar    1  UNL1        0.0577
     12 C         145.1253  142.3489  163.4152 C.ar    1  UNL1        0.0114
     13 C         145.2133  140.9025  163.8028 C.ar    1  UNL1        0.0009
     14 C         144.2873  140.3473  164.8441 C.ar    1  UNL1        0.0016
     15 C         143.2733  141.2385  165.4979 C.ar    1  UNL1        0.0201
     16 C         143.1853  142.6850  165.1103 C.ar    1  UNL1        0.0129
     17 N         137.6510  140.1727  164.0676 N.pl3   1  UNL1       -0.3182
     18 H         136.9456  139.5023  163.9185 H       1  UNL1        0.1482
     19 C         137.8222  141.3086  163.1031 C.3     1  UNL1        0.0754
     20 C         138.1303  141.0289  161.6620 C.3     1  UNL1        0.0517
     21 C         138.3015  142.1650  160.6975 C.3     1  UNL1        0.1439
     22 O         138.1645  143.5806  161.1741 O.3     1  UNL1       -0.3537
     23 C         137.8563  143.8602  162.6153 C.3     1  UNL1        0.1439
     24 C         137.6851  142.7243  163.5797 C.3     1  UNL1        0.0517
@<TRIPOS>BOND
     1    10    11    1
     2    11    12   ar
     3    12    13   ar
     4    13    14   ar
     5    14    15   ar
     6    15     1    1
     7     1     2   ar
     8     2     3   ar
     9     3     4   ar
    10     4     5   ar
    11     5     6   ar
    12     6     7   ar
    13     7    17    1
    14    17    19    1
    15    19    20    1
    16    20    21    1
    17    21    22    1
    18    22    23    1
    19    23    24    1
    20     7     8   ar
    21     8     9   ar
    22    15    16   ar
    23    16    11   ar
    24     9     1   ar
    25     9     4   ar
    26    24    19    1
    27    17    18    1
@<TRIPOS>MOLECULE
*****
 24 27 0 0 0
SMALL
GASTEIGER

@<TRIPOS>ATOM
      1 C         139.5813  140.4272  166.8156 C.ar    1  UNL1        0.1036
      2 C         138.6750  139.2383  166.9381 C.ar    1  UNL1        0.1197
      3 N         137.8162  139.1817  165.7096 N.ar    1  UNL1       -0.2234
      4 C         138.1917  140.3356  164.8278 C.ar    1  UNL1        0.1640
      5 C         137.6812  140.7847  163.4908 C.ar    1  UNL1        0.0417
      6 C         138.2617  142.0037  162.8374 C.ar    1  UNL1        0.0390
      7 C         139.3527  142.7735  163.5209 C.ar    1  UNL1        0.1488
      8 N         139.8632  142.3243  164.8579 N.ar    1  UNL1       -0.1489
      9 N         139.2827  141.1054  165.5114 N.ar    1  UNL1       -0.2096
     10 CL        141.3618  143.9546  170.1901 Cl      1  UNL1       -0.0822
     11 C         141.4967  142.6254  169.5081 C.ar    1  UNL1        0.0577
     12 C         142.6566  141.7309  169.8312 C.ar    1  UNL1        0.0114
     13 C         142.7913  140.4017  169.1491 C.ar    1  UNL1        0.0009
     14 C         141.7663  139.9672  168.1439 C.ar    1  UNL1        0.0016
     15 C         140.6064  140.8617  167.8208 C.ar    1  UNL1        0.0201
     16 C         140.4716  142.1909  168.5029 C.ar    1  UNL1        0.0129
     17 N         139.9332  143.9926  162.8674 N.pl3   1  UNL1       -0.3182
     18 H         139.3388  144.7059  162.5401 H       1  UNL1        0.1482
     19 C         141.4192  144.1248  162.7125 C.3     1  UNL1        0.0754
     20 C         142.1894  145.0390  163.6188 C.3     1  UNL1        0.0517
     21 C         143.6755  145.1712  163.4639 C.3     1  UNL1        0.1439
     22 O         144.3915  144.3892  162.4028 O.3     1  UNL1       -0.3537
     23 C         143.6214  143.4751  161.4966 C.3     1  UNL1        0.1439
     24 C         142.1353  143.3428  161.6514 C.3     1  UNL1        0.0517
@<TRIPOS>BOND
     1    10    11    1
     2    11    12   ar
     3    12    13   ar
     4    13    14   ar
     5    14    15   ar
     6    15     1    1
     7     1     2   ar
     8     2     3   ar
     9     3     4   ar
    10     4     5   ar
    11     5     6   ar
    12     6     7   ar
    13     7    17    1
    14    17    19    1
    15    19    20    1
    16    20    21    1
    17    21    22    1
    18    22    23    1
    19    23    24    1
    20     7     8   ar
    21     8     9   ar
    22    15    16   ar
    23    16    11   ar
    24     9     1   ar
    25     9     4   ar
    26    24    19    1
    27    17    18    1
@<TRIPOS>MOLECULE
*****
 24 27 0 0 0
SMALL
GASTEIGER

@<TRIPOS>ATOM
      1 C         140.5531  141.3832  163.6059 C.ar    1  UNL1        0.1036
      2 C         140.1858  140.7451  162.2990 C.ar    1  UNL1        0.1197
      3 N         139.3432  139.5394  162.5926 N.ar    1  UNL1       -0.2234
      4 C         139.1898  139.4323  164.0809 C.ar    1  UNL1        0.1640
      5 C         138.4658  138.4443  164.9467 C.ar    1  UNL1        0.0417
      6 C         138.4895  138.5960  166.4388 C.ar    1  UNL1        0.0390
      7 C         139.2373  139.7355  167.0651 C.ar    1  UNL1        0.1488
      8 N         139.9613  140.7235  166.1992 N.ar    1  UNL1       -0.1489
      9 N         139.9375  140.5719  164.7071 N.ar    1  UNL1       -0.2096
     10 CL        144.7765  143.7208  165.5290 Cl      1  UNL1       -0.0822
     11 C         143.5009  143.7851  164.7424 C.ar    1  UNL1        0.0577
     12 C         143.0614  145.0823  164.1308 C.ar    1  UNL1        0.0114
     13 C         141.7858  145.1465  163.3442 C.ar    1  UNL1        0.0009
     14 C         140.9498  143.9134  163.1693 C.ar    1  UNL1        0.0016
     15 C         141.3892  142.6163  163.7808 C.ar    1  UNL1        0.0201
     16 C         142.6649  142.5521  164.5675 C.ar    1  UNL1        0.0129
     17 N         139.2610  139.8871  168.5573 N.pl3   1  UNL1       -0.3182
     18 H         138.5337  139.5084  169.1021 H       1  UNL1        0.1482
     19 C         140.3927  140.6158  169.2192 C.3     1  UNL1        0.0754
     20 C         141.6477  139.8795  169.5836 C.3     1  UNL1        0.0517
     21 C         142.7795  140.6082  170.2455 C.3     1  UNL1        0.1439
     22 O         142.6562  142.0732  170.5431 O.3     1  UNL1       -0.3537
     23 C         141.4012  142.8095  170.1787 C.3     1  UNL1        0.1439
     24 C         140.2695  142.0809  169.5168 C.3     1  UNL1        0.0517
@<TRIPOS>BOND
     1    10    11    1
     2    11    12   ar
     3    12    13   ar
     4    13    14   ar
     5    14    15   ar
     6    15     1    1
     7     1     2   ar
     8     2     3   ar
     9     3     4   ar
    10     4     5   ar
    11     5     6   ar
    12     6     7   ar
    13     7    17    1
    14    17    19    1
    15    19    20    1
    16    20    21    1
    17    21    22    1
    18    22    23    1
    19    23    24    1
    20     7     8   ar
    21     8     9   ar
    22    15    16   ar
    23    16    11   ar
    24     9     1   ar
    25     9     4   ar
    26    24    19    1
    27    17    18    1
@<TRIPOS>MOLECULE
*****
 24 27 0 0 0
SMALL
GASTEIGER

@<TRIPOS>ATOM
      1 C         142.1953  138.9642  163.3142 C.ar    1  UNL1        0.1036
      2 C         141.9230  137.7823  162.4316 C.ar    1  UNL1        0.1197
      3 N         140.6780  137.1096  162.9289 N.ar    1  UNL1       -0.2234
      4 C         140.1808  137.8756  164.1188 C.ar    1  UNL1        0.1640
      5 C         138.9954  137.6776  165.0163 C.ar    1  UNL1        0.0417
      6 C         138.7477  138.6257  166.1519 C.ar    1  UNL1        0.0390
      7 C         139.6855  139.7720  166.3900 C.ar    1  UNL1        0.1488
      8 N         140.8709  139.9700  165.4926 N.ar    1  UNL1       -0.1489
      9 N         141.1186  139.0219  164.3570 N.ar    1  UNL1       -0.2096
     10 CL        144.6412  142.7112  160.6726 Cl      1  UNL1       -0.0822
     11 C         144.5658  141.7941  161.8572 C.ar    1  UNL1        0.0577
     12 C         145.6380  141.8332  162.9055 C.ar    1  UNL1        0.0114
     13 C         145.5626  140.9161  164.0900 C.ar    1  UNL1        0.0009
     14 C         144.4150  139.9597  164.2262 C.ar    1  UNL1        0.0016
     15 C         143.3429  139.9205  163.1780 C.ar    1  UNL1        0.0201
     16 C         143.4183  140.8377  161.9934 C.ar    1  UNL1        0.0129
     17 N         139.4378  140.7202  167.5257 N.pl3   1  UNL1       -0.3182
     18 H         138.6969  141.3665  167.4746 H       1  UNL1        0.1482
     19 C         140.3189  140.6836  168.7390 C.3     1  UNL1        0.0754
     20 C         140.0245  141.5777  169.9069 C.3     1  UNL1        0.0517
     21 C         140.9057  141.5411  171.1203 C.3     1  UNL1        0.1439
     22 O         142.0811  140.6104  171.1658 O.3     1  UNL1       -0.3537
     23 C         142.3755  139.7163  169.9979 C.3     1  UNL1        0.1439
     24 C         141.4944  139.7529  168.7846 C.3     1  UNL1        0.0517
@<TRIPOS>BOND
     1    10    11    1
     2    11    12   ar
     3    12    13   ar
     4    13    14   ar
     5    14    15   ar
     6    15     1    1
     7     1     2   ar
     8     2     3   ar
     9     3     4   ar
    10     4     5   ar
    11     5     6   ar
    12     6     7   ar
    13     7    17    1
    14    17    19    1
    15    19    20    1
    16    20    21    1
    17    21    22    1
    18    22    23    1
    19    23    24    1
    20     7     8   ar
    21     8     9   ar
    22    15    16   ar
    23    16    11   ar
    24     9     1   ar
    25     9     4   ar
    26    24    19    1
    27    17    18    1
@<TRIPOS>MOLECULE
*****
 24 27 0 0 0
SMALL
GASTEIGER

@<TRIPOS>ATOM
      1 C         142.5546  143.1999  164.0362 C.ar    1  UNL1        0.1036
      2 C         143.6888  144.0758  164.4791 C.ar    1  UNL1        0.1197
      3 N         144.9198  143.2247  164.5798 N.ar    1  UNL1       -0.2234
      4 C         144.5464  141.8227  164.1991 C.ar    1  UNL1        0.1640
      5 C         145.3486  140.5580  164.1150 C.ar    1  UNL1        0.0417
      6 C         144.6890  139.2780  163.6949 C.ar    1  UNL1        0.0390
      7 C         143.2272  139.2627  163.3589 C.ar    1  UNL1        0.1488
      8 N         142.4250  140.5273  163.4430 N.ar    1  UNL1       -0.1489
      9 N         143.0846  141.8073  163.8631 N.ar    1  UNL1       -0.2096
     10 CL        138.0967  145.1507  165.8586 Cl      1  UNL1       -0.0822
     11 C         138.9098  144.6147  164.7178 C.ar    1  UNL1        0.0577
     12 C         138.3074  144.5181  163.3475 C.ar    1  UNL1        0.0114
     13 C         139.1207  143.9821  162.2068 C.ar    1  UNL1        0.0009
     14 C         140.5364  143.5427  162.4364 C.ar    1  UNL1        0.0016
     15 C         141.1389  143.6393  163.8066 C.ar    1  UNL1        0.0201
     16 C         140.3256  144.1753  164.9474 C.ar    1  UNL1        0.0129
     17 N         142.5676  137.9826  162.9388 N.pl3   1  UNL1       -0.3182
     18 H         143.0749  137.1391  162.9547 H       1  UNL1        0.1482
     19 C         141.1349  137.9878  162.4944 C.3     1  UNL1        0.0754
     20 C         140.0459  137.6524  163.4699 C.3     1  UNL1        0.0517
     21 C         138.6132  137.6576  163.0255 C.3     1  UNL1        0.1439
     22 O         138.2696  137.9982  161.6057 O.3     1  UNL1       -0.3537
     23 C         139.3586  138.3336  160.6302 C.3     1  UNL1        0.1439
     24 C         140.7913  138.3284  161.0746 C.3     1  UNL1        0.0517
@<TRIPOS>BOND
     1    10    11    1
     2    11    12   ar
     3    12    13   ar
     4    13    14   ar
     5    14    15   ar
     6    15     1    1
     7     1     2   ar
     8     2     3   ar
     9     3     4   ar
    10     4     5   ar
    11     5     6   ar
    12     6     7   ar
    13     7    17    1
    14    17    19    1
    15    19    20    1
    16    20    21    1
    17    21    22    1
    18    22    23    1
    19    23    24    1
    20     7     8   ar
    21     8     9   ar
    22    15    16   ar
    23    16    11   ar
    24     9     1   ar
    25     9     4   ar
    26    24    19    1
    27    17    18    1
@<TRIPOS>MOLECULE
*****
 24 27 0 0 0
SMALL
GASTEIGER

@<TRIPOS>ATOM
      1 C         139.5675  142.4600  164.7134 C.ar    1  UNL1        0.1036
      2 C         138.6871  143.6175  165.0808 C.ar    1  UNL1        0.1197
      3 N         139.3921  144.8805  164.6834 N.ar    1  UNL1       -0.2234
      4 C         140.7082  144.5036  164.0704 C.ar    1  UNL1        0.1640
      5 C         141.8218  145.3292  163.4977 C.ar    1  UNL1        0.0417
      6 C         143.0439  144.6590  162.9436 C.ar    1  UNL1        0.0390
      7 C         143.1524  143.1630  162.9621 C.ar    1  UNL1        0.1488
      8 N         142.0387  142.3373  163.5347 N.ar    1  UNL1       -0.1489
      9 N         140.8166  143.0076  164.0889 N.ar    1  UNL1       -0.2096
     10 CL        138.6396  137.7187  162.8005 Cl      1  UNL1       -0.0822
     11 C         138.7900  138.6388  163.9756 C.ar    1  UNL1        0.0577
     12 C         138.6268  138.1085  165.3692 C.ar    1  UNL1        0.0114
     13 C         138.7773  139.0287  166.5442 C.ar    1  UNL1        0.0009
     14 C         139.0908  140.4792  166.3255 C.ar    1  UNL1        0.0016
     15 C         139.2540  141.0095  164.9320 C.ar    1  UNL1        0.0201
     16 C         139.1036  140.0893  163.7569 C.ar    1  UNL1        0.0129
     17 N         144.3746  142.4927  162.4079 N.pl3   1  UNL1       -0.3182
     18 H         145.2686  142.7664  162.7161 H       1  UNL1        0.1482
     19 C         144.2345  141.4054  161.3841 C.3     1  UNL1        0.0754
     20 C         144.0574  141.7566  159.9366 C.3     1  UNL1        0.0517
     21 C         143.9173  140.6692  158.9128 C.3     1  UNL1        0.1439
     22 O         143.9545  139.2308  159.3365 O.3     1  UNL1       -0.3537
     23 C         144.1317  138.8797  160.7840 C.3     1  UNL1        0.1439
     24 C         144.2717  139.9670  161.8078 C.3     1  UNL1        0.0517
@<TRIPOS>BOND
     1    10    11    1
     2    11    12   ar
     3    12    13   ar
     4    13    14   ar
     5    14    15   ar
     6    15     1    1
     7     1     2   ar
     8     2     3   ar
     9     3     4   ar
    10     4     5   ar
    11     5     6   ar
    12     6     7   ar
    13     7    17    1
    14    17    19    1
    15    19    20    1
    16    20    21    1
    17    21    22    1
    18    22    23    1
    19    23    24    1
    20     7     8   ar
    21     8     9   ar
    22    15    16   ar
    23    16    11   ar
    24     9     1   ar
    25     9     4   ar
    26    24    19    1
    27    17    18    1
