@<TRIPOS>MOLECULE
*****
 19 20 0 0 0
SMALL
GASTEIGER

@<TRIPOS>ATOM
      1 C         140.2797  142.9945  166.4539 C.2     1  UNL1        0.0192
      2 C         140.7420  141.6451  166.9178 C.2     1  UNL1        0.0060
      3 C         140.8401  141.3495  168.3851 C.ar    1  UNL1        0.0550
      4 C         139.8325  140.4504  169.0381 C.ar    1  UNL1        0.1422
      5 F         138.7267  139.8469  168.2238 F       1  UNL1       -0.2041
      6 C         139.9306  140.1547  170.5054 C.ar    1  UNL1        0.0298
      7 C         141.0364  140.7582  171.3198 C.ar    1  UNL1        0.0046
      8 C         142.0440  141.6573  170.6668 C.ar    1  UNL1        0.0298
      9 C         141.9459  141.9529  169.1995 C.ar    1  UNL1        0.1422
     10 F         142.9534  142.8520  168.5465 F       1  UNL1       -0.2041
     11 C         139.9853  143.8814  162.0520 C.ar    1  UNL1        0.0674
     12 C         139.4000  144.8359  163.0502 C.ar    1  UNL1        0.0176
     13 C         139.4982  144.5402  164.5175 C.ar    1  UNL1        0.0204
     14 C         140.1816  143.2902  164.9866 C.ar    1  UNL1        0.0814
     15 N         140.7669  142.3357  163.9885 N.ar    1  UNL1       -0.2425
     16 C         140.6688  142.6313  162.5212 C.ar    1  UNL1        0.1133
     17 C         139.3135  143.1536  159.6502 C.3     1  UNL1        0.1123
     18 N         139.8872  144.1770  160.5847 N.pl3   1  UNL1       -0.3029
     19 C         140.3628  145.4961  160.0519 C.3     1  UNL1        0.1123
@<TRIPOS>BOND
     1    17    18    1
     2    18    19    1
     3    18    11    1
     4    11    12   ar
     5    12    13   ar
     6    13    14   ar
     7    14     1    1
     8     1     2    2
     9     2     3    1
    10     3     4   ar
    11     4     5    1
    12     4     6   ar
    13     6     7   ar
    14     7     8   ar
    15     8     9   ar
    16     9    10    1
    17    14    15   ar
    18    15    16   ar
    19    16    11   ar
    20     9     3   ar
@<TRIPOS>MOLECULE
*****
 19 20 0 0 0
SMALL
GASTEIGER

@<TRIPOS>ATOM
      1 C         140.2433  142.9808  166.4336 C.2     1  UNL1        0.0192
      2 C         140.8014  141.6686  166.8989 C.2     1  UNL1        0.0060
      3 C         140.8882  141.3684  168.3660 C.ar    1  UNL1        0.0550
      4 C         141.9956  141.9582  169.1881 C.ar    1  UNL1        0.1422
      5 F         143.0162  142.8483  168.5431 F       1  UNL1       -0.2041
      6 C         142.0823  141.6579  170.6551 C.ar    1  UNL1        0.0298
      7 C         141.0616  140.7678  171.3001 C.ar    1  UNL1        0.0046
      8 C         139.9543  140.1780  170.4781 C.ar    1  UNL1        0.0298
      9 C         139.8675  140.4783  169.0110 C.ar    1  UNL1        0.1422
     10 F         138.7602  139.8885  168.1889 F       1  UNL1       -0.2041
     11 C         139.9831  143.8816  162.0324 C.ar    1  UNL1        0.0674
     12 C         139.4015  144.8393  163.0296 C.ar    1  UNL1        0.0176
     13 C         139.4882  144.5391  164.4967 C.ar    1  UNL1        0.0204
     14 C         140.1566  143.2811  164.9666 C.ar    1  UNL1        0.0814
     15 N         140.7382  142.3234  163.9693 N.ar    1  UNL1       -0.2425
     16 C         140.6514  142.6237  162.5023 C.ar    1  UNL1        0.1133
     17 C         139.3357  143.1590  159.6223 C.3     1  UNL1        0.1123
     18 N         139.8964  144.1819  160.5653 N.pl3   1  UNL1       -0.3029
     19 C         140.3703  145.5050  160.0413 C.3     1  UNL1        0.1123
@<TRIPOS>BOND
     1    17    18    1
     2    18    19    1
     3    18    11    1
     4    11    12   ar
     5    12    13   ar
     6    13    14   ar
     7    14     1    1
     8     1     2    2
     9     2     3    1
    10     3     4   ar
    11     4     5    1
    12     4     6   ar
    13     6     7   ar
    14     7     8   ar
    15     8     9   ar
    16     9    10    1
    17    14    15   ar
    18    15    16   ar
    19    16    11   ar
    20     9     3   ar
@<TRIPOS>MOLECULE
*****
 19 20 0 0 0
SMALL
GASTEIGER

@<TRIPOS>ATOM
      1 C         141.7277  142.4351  166.0513 C.2     1  UNL1        0.0192
      2 C         140.4956  142.3230  166.8994 C.2     1  UNL1        0.0060
      3 C         140.5973  141.8124  168.3062 C.ar    1  UNL1        0.0550
      4 C         140.8765  140.3604  168.5587 C.ar    1  UNL1        0.1422
      5 F         141.0539  139.4190  167.4045 F       1  UNL1       -0.2041
      6 C         140.9782  139.8498  169.9654 C.ar    1  UNL1        0.0298
      7 C         140.8007  140.7912  171.1197 C.ar    1  UNL1        0.0046
      8 C         140.5215  142.2432  170.8672 C.ar    1  UNL1        0.0298
      9 C         140.4198  142.7538  169.4604 C.ar    1  UNL1        0.1422
     10 F         140.1407  144.2058  169.2079 F       1  UNL1       -0.2041
     11 C         141.4227  143.9669  161.8311 C.ar    1  UNL1        0.0674
     12 C         140.9115  144.7988  162.9697 C.ar    1  UNL1        0.0176
     13 C         141.0131  144.2882  164.3764 C.ar    1  UNL1        0.0204
     14 C         141.6261  142.9457  164.6446 C.ar    1  UNL1        0.0814
     15 N         142.1373  142.1138  163.5060 N.ar    1  UNL1       -0.2425
     16 C         142.0356  142.6244  162.0992 C.ar    1  UNL1        0.1133
     17 C         140.3447  145.5661  160.0903 C.3     1  UNL1        0.1123
     18 N         141.3210  144.4775  160.4243 N.pl3   1  UNL1       -0.3029
     19 C         142.1957  143.8995  159.3516 C.3     1  UNL1        0.1123
@<TRIPOS>BOND
     1    17    18    1
     2    18    19    1
     3    18    11    1
     4    11    12   ar
     5    12    13   ar
     6    13    14   ar
     7    14     1    1
     8     1     2    2
     9     2     3    1
    10     3     4   ar
    11     4     5    1
    12     4     6   ar
    13     6     7   ar
    14     7     8   ar
    15     8     9   ar
    16     9    10    1
    17    14    15   ar
    18    15    16   ar
    19    16    11   ar
    20     9     3   ar
@<TRIPOS>MOLECULE
*****
 19 20 0 0 0
SMALL
GASTEIGER

@<TRIPOS>ATOM
      1 C         142.2910  139.8115  166.1970 C.2     1  UNL1        0.0192
      2 C         141.4265  140.8832  166.7921 C.2     1  UNL1        0.0060
      3 C         141.5741  141.2483  168.2394 C.ar    1  UNL1        0.0550
      4 C         142.6976  142.1406  168.6771 C.ar    1  UNL1        0.1422
      5 F         143.6736  142.6677  167.6673 F       1  UNL1       -0.2041
      6 C         142.8452  142.5057  170.1244 C.ar    1  UNL1        0.0298
      7 C         141.8692  141.9785  171.1342 C.ar    1  UNL1        0.0046
      8 C         140.7457  141.0862  170.6966 C.ar    1  UNL1        0.0298
      9 C         140.5981  140.7211  169.2492 C.ar    1  UNL1        0.1422
     10 F         139.4746  139.8288  168.8115 F       1  UNL1       -0.2041
     11 C         141.8483  138.7163  161.8548 C.ar    1  UNL1        0.0674
     12 C         141.6141  137.6830  162.9166 C.ar    1  UNL1        0.0176
     13 C         141.7617  138.0481  164.3640 C.ar    1  UNL1        0.0204
     14 C         142.1434  139.4464  164.7496 C.ar    1  UNL1        0.0814
     15 N         142.3776  140.4797  163.6878 N.ar    1  UNL1       -0.2425
     16 C         142.2300  140.1146  162.2404 C.ar    1  UNL1        0.1133
     17 C         142.8448  137.7170  159.6735 C.3     1  UNL1        0.1123
     18 N         141.7007  138.3512  160.4074 N.pl3   1  UNL1       -0.3029
     19 C         140.4090  138.6202  159.6940 C.3     1  UNL1        0.1123
@<TRIPOS>BOND
     1    17    18    1
     2    18    19    1
     3    18    11    1
     4    11    12   ar
     5    12    13   ar
     6    13    14   ar
     7    14     1    1
     8     1     2    2
     9     2     3    1
    10     3     4   ar
    11     4     5    1
    12     4     6   ar
    13     6     7   ar
    14     7     8   ar
    15     8     9   ar
    16     9    10    1
    17    14    15   ar
    18    15    16   ar
    19    16    11   ar
    20     9     3   ar
@<TRIPOS>MOLECULE
*****
 19 20 0 0 0
SMALL
GASTEIGER

@<TRIPOS>ATOM
      1 C         143.8029  135.2115  155.9101 C.2     1  UNL1        0.0192
      2 C         143.5534  134.3823  157.1348 C.2     1  UNL1        0.0060
      3 C         143.5767  132.8852  157.0446 C.ar    1  UNL1        0.0550
      4 C         142.5028  132.1628  156.2863 C.ar    1  UNL1        0.1422
      5 F         141.4057  132.9375  155.6183 F       1  UNL1       -0.2041
      6 C         142.5260  130.6657  156.1960 C.ar    1  UNL1        0.0298
      7 C         143.6232  129.8910  156.8640 C.ar    1  UNL1        0.0046
      8 C         144.6970  130.6134  157.6223 C.ar    1  UNL1        0.0298
      9 C         144.6737  132.1105  157.7125 C.ar    1  UNL1        0.1422
     10 F         145.7475  132.8329  158.4708 F       1  UNL1       -0.2041
     11 C         143.7331  139.7028  156.1809 C.ar    1  UNL1        0.0674
     12 C         142.6410  138.8959  156.8183 C.ar    1  UNL1        0.0176
     13 C         142.6643  137.3988  156.7280 C.ar    1  UNL1        0.0204
     14 C         143.7796  136.7086  156.0003 C.ar    1  UNL1        0.0814
     15 N         144.8717  137.5154  155.3629 N.ar    1  UNL1       -0.2425
     16 C         144.8484  139.0125  155.4532 C.ar    1  UNL1        0.1133
     17 C         142.4164  141.9412  156.1061 C.3     1  UNL1        0.1123
     18 N         143.7099  141.1999  156.2711 N.pl3   1  UNL1       -0.3029
     19 C         144.9801  141.9556  156.5265 C.3     1  UNL1        0.1123
@<TRIPOS>BOND
     1    17    18    1
     2    18    19    1
     3    18    11    1
     4    11    12   ar
     5    12    13   ar
     6    13    14   ar
     7    14     1    1
     8     1     2    2
     9     2     3    1
    10     3     4   ar
    11     4     5    1
    12     4     6   ar
    13     6     7   ar
    14     7     8   ar
    15     8     9   ar
    16     9    10    1
    17    14    15   ar
    18    15    16   ar
    19    16    11   ar
    20     9     3   ar
@<TRIPOS>MOLECULE
*****
 19 20 0 0 0
SMALL
GASTEIGER

@<TRIPOS>ATOM
      1 C         143.8102  135.1791  155.9203 C.2     1  UNL1        0.0192
      2 C         143.5492  134.3513  157.1436 C.2     1  UNL1        0.0060
      3 C         143.5800  132.8542  157.0567 C.ar    1  UNL1        0.0550
      4 C         144.6804  132.0865  157.7275 C.ar    1  UNL1        0.1422
      5 F         145.7499  132.8159  158.4851 F       1  UNL1       -0.2041
      6 C         144.7112  130.5893  157.6405 C.ar    1  UNL1        0.0298
      7 C         143.6416  129.8598  156.8829 C.ar    1  UNL1        0.0046
      8 C         142.5413  130.6276  156.2122 C.ar    1  UNL1        0.0298
      9 C         142.5105  132.1247  156.2991 C.ar    1  UNL1        0.1422
     10 F         141.4102  132.8924  155.6284 F       1  UNL1       -0.2041
     11 C         143.7178  139.6706  156.1810 C.ar    1  UNL1        0.0674
     12 C         142.6360  138.8593  156.8301 C.ar    1  UNL1        0.0176
     13 C         142.6668  137.3621  156.7432 C.ar    1  UNL1        0.0204
     14 C         143.7794  136.6763  156.0072 C.ar    1  UNL1        0.0814
     15 N         144.8612  137.4877  155.3582 N.ar    1  UNL1       -0.2425
     16 C         144.8304  138.9848  155.4451 C.ar    1  UNL1        0.1133
     17 C         142.3831  141.8994  156.1468 C.3     1  UNL1        0.1123
     18 N         143.6870  141.1678  156.2680 N.pl3   1  UNL1       -0.3029
     19 C         144.9600  141.9333  156.4760 C.3     1  UNL1        0.1123
@<TRIPOS>BOND
     1    17    18    1
     2    18    19    1
     3    18    11    1
     4    11    12   ar
     5    12    13   ar
     6    13    14   ar
     7    14     1    1
     8     1     2    2
     9     2     3    1
    10     3     4   ar
    11     4     5    1
    12     4     6   ar
    13     6     7   ar
    14     7     8   ar
    15     8     9   ar
    16     9    10    1
    17    14    15   ar
    18    15    16   ar
    19    16    11   ar
    20     9     3   ar
@<TRIPOS>MOLECULE
*****
 19 20 0 0 0
SMALL
GASTEIGER

@<TRIPOS>ATOM
      1 C         141.7383  139.3234  166.0624 C.2     1  UNL1        0.0192
      2 C         140.8676  140.3826  166.6707 C.2     1  UNL1        0.0060
      3 C         140.8956  140.6170  168.1520 C.ar    1  UNL1        0.0550
      4 C         139.7356  140.1886  169.0011 C.ar    1  UNL1        0.1422
      5 F         138.5478  139.5257  168.3689 F       1  UNL1       -0.2041
      6 C         139.7635  140.4230  170.4824 C.ar    1  UNL1        0.0298
      7 C         140.9514  141.0858  171.1146 C.ar    1  UNL1        0.0046
      8 C         142.1113  141.5143  170.2655 C.ar    1  UNL1        0.0298
      9 C         142.0834  141.2799  168.7842 C.ar    1  UNL1        0.1422
     10 F         143.2433  141.7083  167.9350 F       1  UNL1       -0.2041
     11 C         141.6545  138.6202  161.6185 C.ar    1  UNL1        0.0674
     12 C         141.2552  137.5223  162.5592 C.ar    1  UNL1        0.0176
     13 C         141.2831  137.7567  164.0405 C.ar    1  UNL1        0.0204
     14 C         141.7104  139.0890  164.5811 C.ar    1  UNL1        0.0814
     15 N         142.1098  140.1869  163.6404 N.ar    1  UNL1       -0.2425
     16 C         142.0818  139.9525  162.1591 C.ar    1  UNL1        0.1133
     17 C         142.8385  137.8410  159.4411 C.3     1  UNL1        0.1123
     18 N         141.6266  138.3858  160.1372 N.pl3   1  UNL1       -0.3029
     19 C         140.3869  138.6961  159.3520 C.3     1  UNL1        0.1123
@<TRIPOS>BOND
     1    17    18    1
     2    18    19    1
     3    18    11    1
     4    11    12   ar
     5    12    13   ar
     6    13    14   ar
     7    14     1    1
     8     1     2    2
     9     2     3    1
    10     3     4   ar
    11     4     5    1
    12     4     6   ar
    13     6     7   ar
    14     7     8   ar
    15     8     9   ar
    16     9    10    1
    17    14    15   ar
    18    15    16   ar
    19    16    11   ar
    20     9     3   ar
@<TRIPOS>MOLECULE
*****
 19 20 0 0 0
SMALL
GASTEIGER

@<TRIPOS>ATOM
      1 C         139.5762  141.1259  166.2749 C.2     1  UNL1        0.0192
      2 C         140.9503  141.4849  166.7574 C.2     1  UNL1        0.0060
      3 C         141.2656  141.4415  168.2232 C.ar    1  UNL1        0.0550
      4 C         140.8254  142.5615  169.1187 C.ar    1  UNL1        0.1422
      5 F         140.0698  143.7250  168.5482 F       1  UNL1       -0.2041
      6 C         141.1407  142.5181  170.5845 C.ar    1  UNL1        0.0298
      7 C         141.8963  141.3545  171.1549 C.ar    1  UNL1        0.0046
      8 C         142.3366  140.2346  170.2595 C.ar    1  UNL1        0.0298
      9 C         142.0212  140.2780  168.7937 C.ar    1  UNL1        0.1422
     10 F         142.4615  139.1580  167.8983 F       1  UNL1       -0.2041
     11 C         138.6301  141.2563  161.8774 C.ar    1  UNL1        0.0674
     12 C         137.6937  141.8869  162.8650 C.ar    1  UNL1        0.0176
     13 C         138.0090  141.8434  164.3309 C.ar    1  UNL1        0.0204
     14 C         139.2608  141.1694  164.8091 C.ar    1  UNL1        0.0814
     15 N         140.1972  140.5388  163.8214 N.ar    1  UNL1       -0.2425
     16 C         139.8819  140.5823  162.3556 C.ar    1  UNL1        0.1133
     17 C         138.5596  142.5556  159.6287 C.3     1  UNL1        0.1123
     18 N         138.3148  141.2998  160.4116 N.pl3   1  UNL1       -0.3029
     19 C         137.7546  140.0875  159.7287 C.3     1  UNL1        0.1123
@<TRIPOS>BOND
     1    17    18    1
     2    18    19    1
     3    18    11    1
     4    11    12   ar
     5    12    13   ar
     6    13    14   ar
     7    14     1    1
     8     1     2    2
     9     2     3    1
    10     3     4   ar
    11     4     5    1
    12     4     6   ar
    13     6     7   ar
    14     7     8   ar
    15     8     9   ar
    16     9    10    1
    17    14    15   ar
    18    15    16   ar
    19    16    11   ar
    20     9     3   ar
@<TRIPOS>MOLECULE
*****
 19 20 0 0 0
SMALL
GASTEIGER

@<TRIPOS>ATOM
      1 C         141.6324  138.2973  164.3572 C.2     1  UNL1        0.0192
      2 C         141.5390  139.6097  165.0775 C.2     1  UNL1        0.0060
      3 C         141.4436  139.6386  166.5742 C.ar    1  UNL1        0.0550
      4 C         140.1724  140.0812  167.2363 C.ar    1  UNL1        0.1422
      5 F         138.9967  140.4947  166.4017 F       1  UNL1       -0.2041
      6 C         140.0770  140.1101  168.7330 C.ar    1  UNL1        0.0298
      7 C         141.2528  139.6965  169.5676 C.ar    1  UNL1        0.0046
      8 C         142.5239  139.2540  168.9055 C.ar    1  UNL1        0.0298
      9 C         142.6193  139.2251  167.4088 C.ar    1  UNL1        0.1422
     10 F         143.8905  138.7826  166.7468 F       1  UNL1       -0.2041
     11 C         141.9186  138.2104  159.8672 C.ar    1  UNL1        0.0674
     12 C         140.6022  138.4905  160.5295 C.ar    1  UNL1        0.0176
     13 C         140.5068  138.5194  162.0262 C.ar    1  UNL1        0.0204
     14 C         141.7278  138.2683  162.8605 C.ar    1  UNL1        0.0814
     15 N         143.0441  137.9883  162.1982 N.ar    1  UNL1       -0.2425
     16 C         143.1395  137.9593  160.7015 C.ar    1  UNL1        0.1133
     17 C         141.3848  139.2738  157.5576 C.3     1  UNL1        0.1123
     18 N         142.0140  138.1815  158.3705 N.pl3   1  UNL1       -0.3029
     19 C         142.7385  137.0601  157.6867 C.3     1  UNL1        0.1123
@<TRIPOS>BOND
     1    17    18    1
     2    18    19    1
     3    18    11    1
     4    11    12   ar
     5    12    13   ar
     6    13    14   ar
     7    14     1    1
     8     1     2    2
     9     2     3    1
    10     3     4   ar
    11     4     5    1
    12     4     6   ar
    13     6     7   ar
    14     7     8   ar
    15     8     9   ar
    16     9    10    1
    17    14    15   ar
    18    15    16   ar
    19    16    11   ar
    20     9     3   ar
