@<TRIPOS>MOLECULE
*****
 38 43 0 0 0
SMALL
GASTEIGER

@<TRIPOS>ATOM
      1 C         137.8314  142.9802  163.0156 C.3     1  UNL1        0.0932
      2 C         137.6470  141.8435  163.9768 C.3     1  UNL1        0.0286
      3 C         137.6723  140.4288  163.4790 C.3     1  UNL1        0.0193
      4 C         137.8819  140.1507  162.0199 C.3     1  UNL1        0.0700
      5 C         138.0662  141.2874  161.0587 C.3     1  UNL1        0.0193
      6 C         138.0409  142.7022  161.5566 C.3     1  UNL1        0.0286
      7 C         137.8757  140.9425  162.2456 C.3     1  UNL1        0.1562
      8 O         137.8529  142.2218  162.6958 O.3     1  UNL1       -0.3572
      9 N         137.9071  138.7360  161.5221 N.3     1  UNL1       -0.2926
     10 H         137.3169  138.7058  160.6907 H       1  UNL1        0.1236
     11 C         139.2113  138.0947  161.1507 C.3     1  UNL1        0.1152
     12 C         140.4112  138.2692  162.0338 C.ar    1  UNL1        0.0765
     13 C         140.5635  137.4286  163.2668 C.ar    1  UNL1        0.0193
     14 C         141.7634  137.6031  164.1499 C.ar    1  UNL1        0.0411
     15 C         142.8109  138.6181  163.8001 C.ar    1  UNL1        0.1708
     16 C         142.6586  139.4587  162.5671 C.ar    1  UNL1        0.1682
     17 N         141.4587  139.2842  161.6839 N.ar    1  UNL1       -0.2304
     18 N         143.7061  140.4737  162.2173 N.am    1  UNL1       -0.2639
     19 C         144.9059  140.6482  163.1004 C.2     1  UNL1        0.2718
     20 O         145.9535  141.6632  162.7505 O.2     1  UNL1       -0.2707
     21 C         145.0583  139.8076  164.3334 C.3     1  UNL1        0.2898
     22 O         144.0108  138.7926  164.6832 O.3     1  UNL1       -0.4628
     23 H         143.6061  141.0254  161.4080 H       1  UNL1        0.1565
     24 C         137.8061  144.3949  163.5134 C.3     1  UNL1        0.0320
     25 C         138.9099  144.8997  164.3949 C.3     1  UNL1        0.0327
     26 C         140.8241  142.0749  167.3286 C.ar    1  UNL1        0.2250
     27 C         142.2322  141.6070  167.1096 C.ar    1  UNL1        0.0593
     28 C         143.0024  142.0806  165.9127 C.ar    1  UNL1        0.0254
     29 C         142.3643  143.0222  164.9348 C.ar    1  UNL1        0.0990
     30 N         143.1345  143.4958  163.7379 N.ar    1  UNL1       -0.2400
     31 C         142.4964  144.4373  162.7600 C.ar    1  UNL1        0.1281
     32 C         141.0882  144.9053  162.9790 C.ar    1  UNL1        0.1566
     33 F         140.4501  145.8469  162.0011 F       1  UNL1       -0.2028
     34 C         140.3180  144.4317  164.1759 C.ar    1  UNL1        0.0261
     35 C         140.9562  143.4901  165.1538 C.ar    1  UNL1        0.1002
     36 N         140.1860  143.0165  166.3507 N.ar    1  UNL1       -0.2104
     37 C         139.8563  140.1326  168.7571 C.3     1  UNL1        0.2542
     38 O         140.0539  141.6013  168.5255 O.3     1  UNL1       -0.4561
@<TRIPOS>BOND
     1    37    38    1
     2    38    26    1
     3    26    27   ar
     4    27    28   ar
     5    28    29   ar
     6    29    30   ar
     7    30    31   ar
     8    31    32   ar
     9    32    33    1
    10    32    34   ar
    11    34    25    1
    12    25    24    1
    13    24     1    1
    14     1     2    1
    15     2     3    1
    16     3     4    1
    17     4     9    1
    18     9    11    1
    19    11    12    1
    20    12    13   ar
    21    13    14   ar
    22    14    15   ar
    23    15    16   ar
    24    16    17   ar
    25    16    18    1
    26    18    19   am
    27    19    20    2
    28    19    21    1
    29    21    22    1
    30     4     5    1
    31     5     6    1
    32     4     7    1
    33     7     8    1
    34    34    35   ar
    35    35    36   ar
    36    36    26   ar
    37    35    29   ar
    38     6     1    1
    39     8     1    1
    40    17    12   ar
    41    22    15    1
    42     9    10    1
    43    18    23    1
@<TRIPOS>MOLECULE
*****
 38 43 0 0 0
SMALL
GASTEIGER

@<TRIPOS>ATOM
      1 C         142.0021  138.0853  164.1410 C.3     1  UNL1        0.0932
      2 C         142.2214  138.4247  162.6964 C.3     1  UNL1        0.0286
      3 C         143.4086  139.2470  162.2911 C.3     1  UNL1        0.0193
      4 C         144.3765  139.7300  163.3303 C.3     1  UNL1        0.0700
      5 C         144.1572  139.3907  164.7749 C.3     1  UNL1        0.0193
      6 C         142.9699  138.5683  165.1802 C.3     1  UNL1        0.0286
      7 C         143.7406  139.2823  163.6006 C.3     1  UNL1        0.1562
      8 O         142.6671  138.5387  163.9672 O.3     1  UNL1       -0.3572
      9 N         145.5637  140.5523  162.9250 N.3     1  UNL1       -0.2926
     10 H         145.6032  140.5300  161.9060 H       1  UNL1        0.1236
     11 C         145.6512  141.9939  163.3302 C.3     1  UNL1        0.1152
     12 C         144.4520  142.8849  163.1957 C.ar    1  UNL1        0.0765
     13 C         143.8280  143.4922  164.4171 C.ar    1  UNL1        0.0193
     14 C         142.6289  144.3832  164.2826 C.ar    1  UNL1        0.0411
     15 C         142.0537  144.6670  162.9266 C.ar    1  UNL1        0.1708
     16 C         142.6776  144.0597  161.7052 C.ar    1  UNL1        0.1682
     17 N         143.8768  143.1686  161.8397 N.ar    1  UNL1       -0.2304
     18 N         142.1024  144.3434  160.3492 N.am    1  UNL1       -0.2639
     19 C         140.9033  145.2344  160.2147 C.2     1  UNL1        0.2718
     20 O         140.3281  145.5181  158.8587 O.2     1  UNL1       -0.2707
     21 C         140.2793  145.8417  161.4361 C.3     1  UNL1        0.2898
     22 O         140.8545  145.5580  162.7921 O.3     1  UNL1       -0.4628
     23 H         142.5119  143.9448  159.5476 H       1  UNL1        0.1565
     24 C         140.8149  137.2630  164.5464 C.3     1  UNL1        0.0320
     25 C         139.5546  137.9381  165.0004 C.3     1  UNL1        0.0327
     26 C         140.2523  142.0617  166.6615 C.ar    1  UNL1        0.2250
     27 C         139.7383  143.2635  165.9258 C.ar    1  UNL1        0.0593
     28 C         138.9918  143.0908  164.6362 C.ar    1  UNL1        0.0254
     29 C         138.7592  141.7163  164.0825 C.ar    1  UNL1        0.0990
     30 N         138.0127  141.5436  162.7930 N.ar    1  UNL1       -0.2400
     31 C         137.7801  140.1692  162.2393 C.ar    1  UNL1        0.1281
     32 C         138.2941  138.9673  162.9751 C.ar    1  UNL1        0.1566
     33 F         138.0615  137.5928  162.4214 F       1  UNL1       -0.2028
     34 C         139.0407  139.1399  164.2646 C.ar    1  UNL1        0.0261
     35 C         139.2732  140.5145  164.8183 C.ar    1  UNL1        0.1002
     36 N         140.0198  140.6872  166.1078 N.ar    1  UNL1       -0.2104
     37 C         140.4513  143.1327  169.0202 C.3     1  UNL1        0.2542
     38 O         140.9989  142.2344  167.9511 O.3     1  UNL1       -0.4561
@<TRIPOS>BOND
     1    37    38    1
     2    38    26    1
     3    26    27   ar
     4    27    28   ar
     5    28    29   ar
     6    29    30   ar
     7    30    31   ar
     8    31    32   ar
     9    32    33    1
    10    32    34   ar
    11    34    25    1
    12    25    24    1
    13    24     1    1
    14     1     2    1
    15     2     3    1
    16     3     4    1
    17     4     9    1
    18     9    11    1
    19    11    12    1
    20    12    13   ar
    21    13    14   ar
    22    14    15   ar
    23    15    16   ar
    24    16    17   ar
    25    16    18    1
    26    18    19   am
    27    19    20    2
    28    19    21    1
    29    21    22    1
    30     4     5    1
    31     5     6    1
    32     4     7    1
    33     7     8    1
    34    34    35   ar
    35    35    36   ar
    36    36    26   ar
    37    35    29   ar
    38     6     1    1
    39     8     1    1
    40    17    12   ar
    41    22    15    1
    42     9    10    1
    43    18    23    1
@<TRIPOS>MOLECULE
*****
 38 43 0 0 0
SMALL
GASTEIGER

@<TRIPOS>ATOM
      1 C         144.6203  140.2451  163.4174 C.3     1  UNL1        0.0932
      2 C         144.1877  140.1596  161.9836 C.3     1  UNL1        0.0286
      3 C         143.1184  139.1884  161.5795 C.3     1  UNL1        0.0193
      4 C         142.4816  138.3027  162.6091 C.3     1  UNL1        0.0700
      5 C         142.9142  138.3882  164.0428 C.3     1  UNL1        0.0193
      6 C         143.9835  139.3594  164.4470 C.3     1  UNL1        0.0286
      7 C         143.0635  138.8192  162.8783 C.3     1  UNL1        0.1562
      8 O         144.0304  139.6974  163.2438 O.3     1  UNL1       -0.3572
      9 N         141.4124  137.3315  162.2050 N.3     1  UNL1       -0.2926
     10 H         141.2588  136.7140  163.0022 H       1  UNL1        0.1236
     11 C         140.0643  137.8339  161.7804 C.3     1  UNL1        0.1152
     12 C         139.4440  139.0039  162.4849 C.ar    1  UNL1        0.0765
     13 C         138.7466  138.8051  163.7980 C.ar    1  UNL1        0.0193
     14 C         138.1264  139.9751  164.5025 C.ar    1  UNL1        0.0411
     15 C         138.2035  141.3440  163.8940 C.ar    1  UNL1        0.1708
     16 C         138.9008  141.5428  162.5810 C.ar    1  UNL1        0.1682
     17 N         139.5211  140.3728  161.8764 N.ar    1  UNL1       -0.2304
     18 N         138.9779  142.9117  161.9724 N.am    1  UNL1       -0.2639
     19 C         138.3577  144.0816  162.6769 C.2     1  UNL1        0.2718
     20 O         138.4348  145.4505  162.0684 O.2     1  UNL1       -0.2707
     21 C         137.6603  143.8828  163.9900 C.3     1  UNL1        0.2898
     22 O         137.5832  142.5140  164.5986 O.3     1  UNL1       -0.4628
     23 H         139.4357  143.0421  161.1106 H       1  UNL1        0.1565
     24 C         145.6895  141.2163  163.8215 C.3     1  UNL1        0.0320
     25 C         145.3256  142.4629  164.5723 C.3     1  UNL1        0.0327
     26 C         142.0934  141.5843  167.5774 C.ar    1  UNL1        0.2250
     27 C         140.7307  142.1889  167.4116 C.ar    1  UNL1        0.0593
     28 C         140.4454  143.0863  166.2440 C.ar    1  UNL1        0.0254
     29 C         141.5228  143.3792  165.2424 C.ar    1  UNL1        0.0990
     30 N         141.2375  144.2767  164.0748 N.ar    1  UNL1       -0.2400
     31 C         142.3149  144.5696  163.0731 C.ar    1  UNL1        0.1281
     32 C         143.6777  143.9650  163.2390 C.ar    1  UNL1        0.1566
     33 F         144.7551  144.2579  162.2373 F       1  UNL1       -0.2028
     34 C         143.9630  143.0675  164.4065 C.ar    1  UNL1        0.0261
     35 C         142.8855  142.7746  165.4082 C.ar    1  UNL1        0.1002
     36 N         143.1708  141.8771  166.5757 N.ar    1  UNL1       -0.2104
     37 C         141.2498  140.1667  169.5846 C.3     1  UNL1        0.2542
     38 O         142.3787  140.6868  168.7450 O.3     1  UNL1       -0.4561
@<TRIPOS>BOND
     1    37    38    1
     2    38    26    1
     3    26    27   ar
     4    27    28   ar
     5    28    29   ar
     6    29    30   ar
     7    30    31   ar
     8    31    32   ar
     9    32    33    1
    10    32    34   ar
    11    34    25    1
    12    25    24    1
    13    24     1    1
    14     1     2    1
    15     2     3    1
    16     3     4    1
    17     4     9    1
    18     9    11    1
    19    11    12    1
    20    12    13   ar
    21    13    14   ar
    22    14    15   ar
    23    15    16   ar
    24    16    17   ar
    25    16    18    1
    26    18    19   am
    27    19    20    2
    28    19    21    1
    29    21    22    1
    30     4     5    1
    31     5     6    1
    32     4     7    1
    33     7     8    1
    34    34    35   ar
    35    35    36   ar
    36    36    26   ar
    37    35    29   ar
    38     6     1    1
    39     8     1    1
    40    17    12   ar
    41    22    15    1
    42     9    10    1
    43    18    23    1
@<TRIPOS>MOLECULE
*****
 38 43 0 0 0
SMALL
GASTEIGER

@<TRIPOS>ATOM
      1 C         144.4509  139.6132  163.7498 C.3     1  UNL1        0.0932
      2 C         144.2051  139.1615  162.3407 C.3     1  UNL1        0.0286
      3 C         143.0127  138.3084  162.0238 C.3     1  UNL1        0.0193
      4 C         142.0661  137.9069  163.1161 C.3     1  UNL1        0.0700
      5 C         142.3120  138.3587  164.5252 C.3     1  UNL1        0.0193
      6 C         143.5044  139.2118  164.8420 C.3     1  UNL1        0.0286
      7 C         142.7058  138.3753  163.3382 C.3     1  UNL1        0.1562
      8 O         143.7840  139.1468  163.6248 O.3     1  UNL1       -0.3572
      9 N         140.8738  137.0538  162.7992 N.3     1  UNL1       -0.2926
     10 H         140.6724  136.5068  163.6362 H       1  UNL1        0.1236
     11 C         139.5838  137.6939  162.3794 C.3     1  UNL1        0.1152
     12 C         139.1457  138.9822  163.0105 C.ar    1  UNL1        0.0765
     13 C         138.6141  138.9877  164.4132 C.ar    1  UNL1        0.0193
     14 C         138.1760  140.2760  165.0442 C.ar    1  UNL1        0.0411
     15 C         138.2693  141.5589  164.2726 C.ar    1  UNL1        0.1708
     16 C         138.8009  141.5535  162.8699 C.ar    1  UNL1        0.1682
     17 N         139.2390  140.2652  162.2388 N.ar    1  UNL1       -0.2304
     18 N         138.8942  142.8365  162.0983 N.am    1  UNL1       -0.2639
     19 C         138.4561  144.1248  162.7293 C.2     1  UNL1        0.2718
     20 O         138.5494  145.4077  161.9577 O.2     1  UNL1       -0.2707
     21 C         137.9245  144.1302  164.1320 C.3     1  UNL1        0.2898
     22 O         137.8312  142.8473  164.9037 O.3     1  UNL1       -0.4628
     23 H         139.2431  142.8329  161.1777 H       1  UNL1        0.1565
     24 C         145.6432  140.4664  164.0667 C.3     1  UNL1        0.0320
     25 C         145.6138  141.9365  163.7698 C.3     1  UNL1        0.0327
     26 C         144.2182  142.6803  159.5569 C.ar    1  UNL1        0.2250
     27 C         142.9089  143.3698  159.3113 C.ar    1  UNL1        0.0593
     28 C         142.0648  143.8114  160.4700 C.ar    1  UNL1        0.0254
     29 C         142.5300  143.5634  161.8743 C.ar    1  UNL1        0.0990
     30 N         141.6859  144.0049  163.0329 N.ar    1  UNL1       -0.2400
     31 C         142.1511  143.7570  164.4372 C.ar    1  UNL1        0.1281
     32 C         143.4604  143.0675  164.6829 C.ar    1  UNL1        0.1566
     33 F         143.9256  142.8195  166.0872 F       1  UNL1       -0.2028
     34 C         144.3045  142.6259  163.5242 C.ar    1  UNL1        0.0261
     35 C         143.8393  142.8739  162.1199 C.ar    1  UNL1        0.1002
     36 N         144.6834  142.4324  160.9612 N.ar    1  UNL1       -0.2104
     37 C         144.5935  141.1243  157.5105 C.3     1  UNL1        0.2542
     38 O         145.0623  142.2388  158.3982 O.3     1  UNL1       -0.4561
@<TRIPOS>BOND
     1    37    38    1
     2    38    26    1
     3    26    27   ar
     4    27    28   ar
     5    28    29   ar
     6    29    30   ar
     7    30    31   ar
     8    31    32   ar
     9    32    33    1
    10    32    34   ar
    11    34    25    1
    12    25    24    1
    13    24     1    1
    14     1     2    1
    15     2     3    1
    16     3     4    1
    17     4     9    1
    18     9    11    1
    19    11    12    1
    20    12    13   ar
    21    13    14   ar
    22    14    15   ar
    23    15    16   ar
    24    16    17   ar
    25    16    18    1
    26    18    19   am
    27    19    20    2
    28    19    21    1
    29    21    22    1
    30     4     5    1
    31     5     6    1
    32     4     7    1
    33     7     8    1
    34    34    35   ar
    35    35    36   ar
    36    36    26   ar
    37    35    29   ar
    38     6     1    1
    39     8     1    1
    40    17    12   ar
    41    22    15    1
    42     9    10    1
    43    18    23    1
@<TRIPOS>MOLECULE
*****
 38 43 0 0 0
SMALL
GASTEIGER

@<TRIPOS>ATOM
      1 C         139.3447  137.9326  164.6509 C.3     1  UNL1        0.0932
      2 C         138.9389  138.0939  163.2158 C.3     1  UNL1        0.0286
      3 C         139.9474  137.8918  162.1240 C.3     1  UNL1        0.0193
      4 C         141.3617  137.5285  162.4671 C.3     1  UNL1        0.0700
      5 C         141.7675  137.3672  163.9022 C.3     1  UNL1        0.0193
      6 C         140.7590  137.5693  164.9941 C.3     1  UNL1        0.0286
      7 C         140.8445  137.6290  163.0999 C.3     1  UNL1        0.1562
      8 O         139.9327  137.8117  164.0872 O.3     1  UNL1       -0.3572
      9 N         142.3701  137.3264  161.3753 N.3     1  UNL1       -0.2926
     10 H         141.8661  137.4003  160.4916 H       1  UNL1        0.1236
     11 C         143.5581  138.2366  161.2737 C.3     1  UNL1        0.1152
     12 C         143.4290  139.6830  161.6492 C.ar    1  UNL1        0.0765
     13 C         142.6220  140.6117  160.7909 C.ar    1  UNL1        0.0193
     14 C         142.4929  142.0581  161.1665 C.ar    1  UNL1        0.0411
     15 C         143.1707  142.5760  162.4003 C.ar    1  UNL1        0.1708
     16 C         143.9776  141.6475  163.2586 C.ar    1  UNL1        0.1682
     17 N         144.1067  140.2009  162.8831 N.ar    1  UNL1       -0.2304
     18 N         144.6554  142.1654  164.4925 N.am    1  UNL1       -0.2639
     19 C         144.5262  143.6118  164.8680 C.2     1  UNL1        0.2718
     20 O         145.2040  144.1297  166.1019 O.2     1  UNL1       -0.2707
     21 C         143.7193  144.5404  164.0097 C.3     1  UNL1        0.2898
     22 O         143.0415  144.0225  162.7759 O.3     1  UNL1       -0.4628
     23 H         145.1850  141.5559  165.0558 H       1  UNL1        0.1565
     24 C         138.3363  138.1347  165.7427 C.3     1  UNL1        0.0320
     25 C         138.0576  139.5148  166.2603 C.3     1  UNL1        0.0327
     26 C         141.5859  140.1239  168.9860 C.ar    1  UNL1        0.2250
     27 C         142.5570  141.2354  168.7187 C.ar    1  UNL1        0.0593
     28 C         142.3520  142.1439  167.5429 C.ar    1  UNL1        0.0254
     29 C         141.1759  141.9409  166.6343 C.ar    1  UNL1        0.0990
     30 N         140.9709  142.8494  165.4585 N.ar    1  UNL1       -0.2400
     31 C         139.7948  142.6464  164.5500 C.ar    1  UNL1        0.1281
     32 C         138.8236  141.5349  164.8172 C.ar    1  UNL1        0.1566
     33 F         137.6475  141.3318  163.9086 F       1  UNL1       -0.2028
     34 C         139.0287  140.6263  165.9930 C.ar    1  UNL1        0.0261
     35 C         140.2048  140.8294  166.9016 C.ar    1  UNL1        0.1002
     36 N         140.4098  139.9209  168.0774 N.ar    1  UNL1       -0.2104
     37 C         142.9292  138.2385  170.1654 C.3     1  UNL1        0.2542
     38 O         141.7910  139.2154  170.1618 O.3     1  UNL1       -0.4561
@<TRIPOS>BOND
     1    37    38    1
     2    38    26    1
     3    26    27   ar
     4    27    28   ar
     5    28    29   ar
     6    29    30   ar
     7    30    31   ar
     8    31    32   ar
     9    32    33    1
    10    32    34   ar
    11    34    25    1
    12    25    24    1
    13    24     1    1
    14     1     2    1
    15     2     3    1
    16     3     4    1
    17     4     9    1
    18     9    11    1
    19    11    12    1
    20    12    13   ar
    21    13    14   ar
    22    14    15   ar
    23    15    16   ar
    24    16    17   ar
    25    16    18    1
    26    18    19   am
    27    19    20    2
    28    19    21    1
    29    21    22    1
    30     4     5    1
    31     5     6    1
    32     4     7    1
    33     7     8    1
    34    34    35   ar
    35    35    36   ar
    36    36    26   ar
    37    35    29   ar
    38     6     1    1
    39     8     1    1
    40    17    12   ar
    41    22    15    1
    42     9    10    1
    43    18    23    1
@<TRIPOS>MOLECULE
*****
 38 43 0 0 0
SMALL
GASTEIGER

@<TRIPOS>ATOM
      1 C         141.8411  138.1672  164.2837 C.3     1  UNL1        0.0932
      2 C         142.9240  138.5151  165.2615 C.3     1  UNL1        0.0286
      3 C         144.1301  139.2806  164.8040 C.3     1  UNL1        0.0193
      4 C         144.2532  139.6982  163.3685 C.3     1  UNL1        0.0700
      5 C         143.1703  139.3503  162.3907 C.3     1  UNL1        0.0193
      6 C         141.9642  138.5847  162.8483 C.3     1  UNL1        0.0286
      7 C         143.5738  139.2802  163.5723 C.3     1  UNL1        0.1562
      8 O         142.4832  138.5880  163.9861 O.3     1  UNL1       -0.3572
      9 N         145.4593  140.4637  162.9109 N.3     1  UNL1       -0.2926
     10 H         145.5088  140.3570  161.8978 H       1  UNL1        0.1236
     11 C         145.5688  141.9320  163.1975 C.3     1  UNL1        0.1152
     12 C         144.3543  142.8072  163.1033 C.ar    1  UNL1        0.0765
     13 C         143.6896  143.3048  164.3525 C.ar    1  UNL1        0.0193
     14 C         142.4751  144.1800  164.2583 C.ar    1  UNL1        0.0411
     15 C         141.9253  144.5578  162.9148 C.ar    1  UNL1        0.1708
     16 C         142.5900  144.0603  161.6655 C.ar    1  UNL1        0.1682
     17 N         143.8045  143.1850  161.7597 N.ar    1  UNL1       -0.2304
     18 N         142.0402  144.4380  160.3220 N.am    1  UNL1       -0.2639
     19 C         140.8257  145.3133  160.2277 C.2     1  UNL1        0.2718
     20 O         140.2759  145.6910  158.8842 O.2     1  UNL1       -0.2707
     21 C         140.1609  145.8108  161.4770 C.3     1  UNL1        0.2898
     22 O         140.7107  145.4330  162.8205 O.3     1  UNL1       -0.4628
     23 H         142.4765  144.1115  159.5021 H       1  UNL1        0.1565
     24 C         140.6350  137.4017  164.7412 C.3     1  UNL1        0.0320
     25 C         139.3971  138.1354  165.1646 C.3     1  UNL1        0.0327
     26 C         137.8692  140.6571  161.7651 C.ar    1  UNL1        0.2250
     27 C         137.8846  142.1529  161.8750 C.ar    1  UNL1        0.0593
     28 C         138.4094  142.8083  163.1181 C.ar    1  UNL1        0.0254
     29 C         138.9186  141.9677  164.2512 C.ar    1  UNL1        0.0990
     30 N         139.4434  142.6231  165.4943 N.ar    1  UNL1       -0.2400
     31 C         139.9527  141.7826  166.6275 C.ar    1  UNL1        0.1281
     32 C         139.9372  140.2866  166.5176 C.ar    1  UNL1        0.1566
     33 F         140.4465  139.4461  167.6507 F       1  UNL1       -0.2028
     34 C         139.4125  139.6313  165.2745 C.ar    1  UNL1        0.0261
     35 C         138.9032  140.4719  164.1413 C.ar    1  UNL1        0.1002
     36 N         138.3785  139.8166  162.8983 N.ar    1  UNL1       -0.2104
     37 C         137.9961  140.2736  159.1986 C.3     1  UNL1        0.2542
     38 O         137.3445  140.0017  160.5220 O.3     1  UNL1       -0.4561
@<TRIPOS>BOND
     1    37    38    1
     2    38    26    1
     3    26    27   ar
     4    27    28   ar
     5    28    29   ar
     6    29    30   ar
     7    30    31   ar
     8    31    32   ar
     9    32    33    1
    10    32    34   ar
    11    34    25    1
    12    25    24    1
    13    24     1    1
    14     1     2    1
    15     2     3    1
    16     3     4    1
    17     4     9    1
    18     9    11    1
    19    11    12    1
    20    12    13   ar
    21    13    14   ar
    22    14    15   ar
    23    15    16   ar
    24    16    17   ar
    25    16    18    1
    26    18    19   am
    27    19    20    2
    28    19    21    1
    29    21    22    1
    30     4     5    1
    31     5     6    1
    32     4     7    1
    33     7     8    1
    34    34    35   ar
    35    35    36   ar
    36    36    26   ar
    37    35    29   ar
    38     6     1    1
    39     8     1    1
    40    17    12   ar
    41    22    15    1
    42     9    10    1
    43    18    23    1
@<TRIPOS>MOLECULE
*****
 38 43 0 0 0
SMALL
GASTEIGER

@<TRIPOS>ATOM
      1 C         143.7338  142.0517  163.8704 C.3     1  UNL1        0.0932
      2 C         142.7494  142.5435  164.8897 C.3     1  UNL1        0.0286
      3 C         141.9826  143.8087  164.6423 C.3     1  UNL1        0.0193
      4 C         142.2002  144.5821  163.3756 C.3     1  UNL1        0.0700
      5 C         143.1846  144.0903  162.3563 C.3     1  UNL1        0.0193
      6 C         143.9514  142.8250  162.6037 C.3     1  UNL1        0.0286
      7 C         142.6437  143.8944  163.4668 C.3     1  UNL1        0.1562
      8 O         143.3371  142.7504  163.6904 O.3     1  UNL1       -0.3572
      9 N         141.4334  145.8473  163.1283 N.3     1  UNL1       -0.2926
     10 H         142.0645  146.4838  162.6414 H       1  UNL1        0.1236
     11 C         140.1602  145.8100  162.3360 C.3     1  UNL1        0.1152
     12 C         139.4149  144.5183  162.1746 C.ar    1  UNL1        0.0765
     13 C         138.4081  144.0996  163.2048 C.ar    1  UNL1        0.0193
     14 C         137.6628  142.8079  163.0434 C.ar    1  UNL1        0.0411
     15 C         137.9242  141.9350  161.8519 C.ar    1  UNL1        0.1708
     16 C         138.9309  142.3536  160.8218 C.ar    1  UNL1        0.1682
     17 N         139.6763  143.6454  160.9832 N.ar    1  UNL1       -0.2304
     18 N         139.1924  141.4807  159.6304 N.am    1  UNL1       -0.2639
     19 C         138.4470  140.1890  159.4690 C.2     1  UNL1        0.2718
     20 O         138.7085  139.3160  158.2776 O.2     1  UNL1       -0.2707
     21 C         137.4402  139.7703  160.4991 C.3     1  UNL1        0.2898
     22 O         137.1788  140.6432  161.6906 O.3     1  UNL1       -0.4628
     23 H         139.8531  141.7555  158.9543 H       1  UNL1        0.1565
     24 C         144.5006  140.7865  164.1177 C.3     1  UNL1        0.0320
     25 C         143.7924  139.5687  164.6331 C.3     1  UNL1        0.0327
     26 C         139.6008  139.3846  166.2601 C.ar    1  UNL1        0.2250
     27 C         138.5086  138.7528  165.4490 C.ar    1  UNL1        0.0593
     28 C         138.8135  138.1824  164.0957 C.ar    1  UNL1        0.0254
     29 C         140.2107  138.2437  163.5533 C.ar    1  UNL1        0.0990
     30 N         140.5156  137.6733  162.2000 N.ar    1  UNL1       -0.2400
     31 C         141.9127  137.7346  161.6576 C.ar    1  UNL1        0.1281
     32 C         143.0050  138.3665  162.4687 C.ar    1  UNL1        0.1566
     33 F         144.4022  138.4278  161.9263 F       1  UNL1       -0.2028
     34 C         142.7001  138.9369  163.8220 C.ar    1  UNL1        0.0261
     35 C         141.3029  138.8755  164.3644 C.ar    1  UNL1        0.1002
     36 N         140.9980  139.4460  165.7177 N.ar    1  UNL1       -0.2104
     37 C         140.3943  140.1246  168.6207 C.3     1  UNL1        0.2542
     38 O         139.2959  139.9551  167.6134 O.3     1  UNL1       -0.4561
@<TRIPOS>BOND
     1    37    38    1
     2    38    26    1
     3    26    27   ar
     4    27    28   ar
     5    28    29   ar
     6    29    30   ar
     7    30    31   ar
     8    31    32   ar
     9    32    33    1
    10    32    34   ar
    11    34    25    1
    12    25    24    1
    13    24     1    1
    14     1     2    1
    15     2     3    1
    16     3     4    1
    17     4     9    1
    18     9    11    1
    19    11    12    1
    20    12    13   ar
    21    13    14   ar
    22    14    15   ar
    23    15    16   ar
    24    16    17   ar
    25    16    18    1
    26    18    19   am
    27    19    20    2
    28    19    21    1
    29    21    22    1
    30     4     5    1
    31     5     6    1
    32     4     7    1
    33     7     8    1
    34    34    35   ar
    35    35    36   ar
    36    36    26   ar
    37    35    29   ar
    38     6     1    1
    39     8     1    1
    40    17    12   ar
    41    22    15    1
    42     9    10    1
    43    18    23    1
@<TRIPOS>MOLECULE
*****
 38 43 0 0 0
SMALL
GASTEIGER

@<TRIPOS>ATOM
      1 C         140.2890  140.0812  166.5012 C.3     1  UNL1        0.0932
      2 C         140.0061  141.5518  166.4159 C.3     1  UNL1        0.0286
      3 C         141.1284  142.5397  166.5360 C.3     1  UNL1        0.0193
      4 C         142.5337  142.0570  166.7413 C.3     1  UNL1        0.0700
      5 C         142.8167  140.5864  166.8266 C.3     1  UNL1        0.0193
      6 C         141.6943  139.5985  166.7065 C.3     1  UNL1        0.0286
      7 C         141.9516  141.4778  166.6812 C.3     1  UNL1        0.1562
      8 O         140.9368  140.5845  166.5726 O.3     1  UNL1       -0.3572
      9 N         143.6560  143.0449  166.8614 N.3     1  UNL1       -0.2926
     10 H         144.2560  142.7184  167.6189 H       1  UNL1        0.1236
     11 C         144.5491  143.3119  165.6862 C.3     1  UNL1        0.1152
     12 C         143.9528  143.5676  164.3338 C.ar    1  UNL1        0.0765
     13 C         144.5353  142.9061  163.1200 C.ar    1  UNL1        0.0193
     14 C         143.9389  143.1618  161.7676 C.ar    1  UNL1        0.0411
     15 C         142.7601  144.0789  161.6289 C.ar    1  UNL1        0.1708
     16 C         142.1776  144.7404  162.8426 C.ar    1  UNL1        0.1682
     17 N         142.7740  144.4847  164.1951 N.ar    1  UNL1       -0.2304
     18 N         140.9988  145.6575  162.7040 N.am    1  UNL1       -0.2639
     19 C         140.4025  145.9132  161.3516 C.2     1  UNL1        0.2718
     20 O         139.2237  146.8304  161.2129 O.2     1  UNL1       -0.2707
     21 C         140.9849  145.2517  160.1378 C.3     1  UNL1        0.2898
     22 O         142.1638  144.3346  160.2765 O.3     1  UNL1       -0.4628
     23 H         140.6165  146.0917  163.5006 H       1  UNL1        0.1565
     24 C         139.1668  139.0933  166.3811 C.3     1  UNL1        0.0320
     25 C         138.8230  138.5075  165.0437 C.3     1  UNL1        0.0327
     26 C         138.5481  141.9051  162.1058 C.ar    1  UNL1        0.2250
     27 C         139.5264  141.9978  160.9727 C.ar    1  UNL1        0.0593
     28 C         140.5965  140.9579  160.8187 C.ar    1  UNL1        0.0254
     29 C         140.6881  139.8254  161.7980 C.ar    1  UNL1        0.0990
     30 N         141.7582  138.7855  161.6441 N.ar    1  UNL1       -0.2400
     31 C         141.8499  137.6530  162.6233 C.ar    1  UNL1        0.1281
     32 C         140.8714  137.5603  163.7566 C.ar    1  UNL1        0.1566
     33 F         140.9631  136.4278  164.7358 F       1  UNL1       -0.2028
     34 C         139.8014  138.6002  163.9105 C.ar    1  UNL1        0.0261
     35 C         139.7098  139.7327  162.9312 C.ar    1  UNL1        0.1002
     36 N         138.6397  140.7726  163.0851 N.ar    1  UNL1       -0.2104
     37 C         137.6811  144.0968  163.1989 C.3     1  UNL1        0.2542
     38 O         137.4780  142.9450  162.2598 O.3     1  UNL1       -0.4561
@<TRIPOS>BOND
     1    37    38    1
     2    38    26    1
     3    26    27   ar
     4    27    28   ar
     5    28    29   ar
     6    29    30   ar
     7    30    31   ar
     8    31    32   ar
     9    32    33    1
    10    32    34   ar
    11    34    25    1
    12    25    24    1
    13    24     1    1
    14     1     2    1
    15     2     3    1
    16     3     4    1
    17     4     9    1
    18     9    11    1
    19    11    12    1
    20    12    13   ar
    21    13    14   ar
    22    14    15   ar
    23    15    16   ar
    24    16    17   ar
    25    16    18    1
    26    18    19   am
    27    19    20    2
    28    19    21    1
    29    21    22    1
    30     4     5    1
    31     5     6    1
    32     4     7    1
    33     7     8    1
    34    34    35   ar
    35    35    36   ar
    36    36    26   ar
    37    35    29   ar
    38     6     1    1
    39     8     1    1
    40    17    12   ar
    41    22    15    1
    42     9    10    1
    43    18    23    1
@<TRIPOS>MOLECULE
*****
 38 43 0 0 0
SMALL
GASTEIGER

@<TRIPOS>ATOM
      1 C         142.9360  138.5320  163.7783 C.3     1  UNL1        0.0932
      2 C         141.7781  138.0910  164.6236 C.3     1  UNL1        0.0286
      3 C         140.4907  137.6767  163.9747 C.3     1  UNL1        0.0193
      4 C         140.3613  137.7034  162.4805 C.3     1  UNL1        0.0700
      5 C         141.5193  138.1445  161.6352 C.3     1  UNL1        0.0193
      6 C         142.8067  138.5588  162.2841 C.3     1  UNL1        0.0286
      7 C         141.0866  137.9395  162.7906 C.3     1  UNL1        0.1562
      8 O         142.2507  138.3141  163.3773 O.3     1  UNL1       -0.3572
      9 N         139.0739  137.2892  161.8317 N.3     1  UNL1       -0.2926
     10 H         138.8326  136.3747  162.2137 H       1  UNL1        0.1236
     11 C         137.8539  138.1511  161.9681 C.3     1  UNL1        0.1152
     12 C         137.9822  139.6449  161.9238 C.ar    1  UNL1        0.0765
     13 C         138.2185  140.3389  160.6151 C.ar    1  UNL1        0.0193
     14 C         138.3468  141.8327  160.5707 C.ar    1  UNL1        0.0411
     15 C         138.2388  142.6326  161.8350 C.ar    1  UNL1        0.1708
     16 C         138.0024  141.9387  163.1437 C.ar    1  UNL1        0.1682
     17 N         137.8741  140.4448  163.1881 N.ar    1  UNL1       -0.2304
     18 N         137.8944  142.7386  164.4080 N.am    1  UNL1       -0.2639
     19 C         138.0227  144.2325  164.3636 C.2     1  UNL1        0.2718
     20 O         137.9147  145.0324  165.6279 O.2     1  UNL1       -0.2707
     21 C         138.2590  144.9264  163.0549 C.3     1  UNL1        0.2898
     22 O         138.3671  144.1265  161.7906 O.3     1  UNL1       -0.4628
     23 H         137.7393  142.2832  165.2669 H       1  UNL1        0.1565
     24 C         144.2234  138.9463  164.4271 C.3     1  UNL1        0.0320
     25 C         144.4540  140.3847  164.7850 C.3     1  UNL1        0.0327
     26 C         141.8941  141.2512  168.3831 C.ar    1  UNL1        0.2250
     27 C         140.7694  142.2386  168.2831 C.ar    1  UNL1        0.0593
     28 C         140.4980  142.9371  166.9837 C.ar    1  UNL1        0.0254
     29 C         141.3513  142.6483  165.7844 C.ar    1  UNL1        0.0990
     30 N         141.0799  143.3469  164.4850 N.ar    1  UNL1       -0.2400
     31 C         141.9331  143.0581  163.2857 C.ar    1  UNL1        0.1281
     32 C         143.0579  142.0706  163.3857 C.ar    1  UNL1        0.1566
     33 F         143.9112  141.7818  162.1863 F       1  UNL1       -0.2028
     34 C         143.3293  141.3721  164.6850 C.ar    1  UNL1        0.0261
     35 C         142.4760  141.6609  165.8844 C.ar    1  UNL1        0.1002
     36 N         142.7474  140.9623  167.1837 N.ar    1  UNL1       -0.2104
     37 C         142.4174  139.0740  169.7007 C.3     1  UNL1        0.2542
     38 O         142.1656  140.5526  169.6824 O.3     1  UNL1       -0.4561
@<TRIPOS>BOND
     1    37    38    1
     2    38    26    1
     3    26    27   ar
     4    27    28   ar
     5    28    29   ar
     6    29    30   ar
     7    30    31   ar
     8    31    32   ar
     9    32    33    1
    10    32    34   ar
    11    34    25    1
    12    25    24    1
    13    24     1    1
    14     1     2    1
    15     2     3    1
    16     3     4    1
    17     4     9    1
    18     9    11    1
    19    11    12    1
    20    12    13   ar
    21    13    14   ar
    22    14    15   ar
    23    15    16   ar
    24    16    17   ar
    25    16    18    1
    26    18    19   am
    27    19    20    2
    28    19    21    1
    29    21    22    1
    30     4     5    1
    31     5     6    1
    32     4     7    1
    33     7     8    1
    34    34    35   ar
    35    35    36   ar
    36    36    26   ar
    37    35    29   ar
    38     6     1    1
    39     8     1    1
    40    17    12   ar
    41    22    15    1
    42     9    10    1
    43    18    23    1
