@<TRIPOS>MOLECULE
*****
 37 40 0 0 0
SMALL
GASTEIGER

@<TRIPOS>ATOM
      1 C         140.9352  145.0501  157.8058 C.3     1  UNL1        0.0793
      2 C         142.1182  144.1572  157.5747 C.3     1  UNL1        0.0264
      3 C         142.9173  143.6544  158.7403 C.3     1  UNL1        0.0729
      4 N         142.5335  144.0445  160.1370 N.3     1  UNL1       -0.2689
      5 C         141.3505  144.9374  160.3680 C.3     1  UNL1        0.0729
      6 C         140.5514  145.4402  159.2023 C.3     1  UNL1        0.0264
      7 O         139.0537  144.6991  156.0489 O.2     1  UNL1       -0.2751
      8 C         140.1361  145.5528  156.6402 C.2     1  UNL1        0.2223
      9 N         140.4192  146.9094  156.0660 N.am    1  UNL1       -0.3003
     10 H         141.1296  147.4697  156.4541 H       1  UNL1        0.1497
     11 C         139.6201  147.4121  154.9004 C.3     1  UNL1        0.1202
     12 C         139.3493  148.8803  154.7542 C.ar    1  UNL1        0.0418
     13 C         138.7233  149.6436  155.8835 C.ar    1  UNL1        0.1329
     14 O         138.3682  148.9389  157.1591 O.3     1  UNL1       -0.5057
     15 C         138.4525  151.1117  155.7372 C.ar    1  UNL1        0.0478
     16 C         138.8077  151.8164  154.4616 C.ar    1  UNL1        0.0615
     17 CL        138.5369  153.2845  154.3153 Cl      1  UNL1       -0.0821
     18 C         139.4337  151.0530  153.3322 C.ar    1  UNL1        0.0227
     19 C         139.7044  149.5850  153.4785 C.ar    1  UNL1        0.0590
     20 CL        140.3304  148.8216  152.3492 Cl      1  UNL1       -0.0824
     21 H         138.5373  148.0218  157.2505 H       1  UNL1        0.2922
     22 C         143.3327  143.5418  161.3025 C.3     1  UNL1        0.1007
     23 C         142.6403  143.1554  162.5758 C.ar    1  UNL1        0.0129
     24 C         142.6655  143.9265  163.8622 C.ar    1  UNL1        0.0176
     25 C         141.8418  143.1778  164.8677 C.ar    1  UNL1        0.0799
     26 N         141.3076  141.9439  164.2028 N.ar    1  UNL1       -0.3038
     27 C         141.8011  141.9301  162.7863 C.ar    1  UNL1        0.0772
     28 C         140.4334  140.9061  164.8421 C.ar    1  UNL1        0.0640
     29 C         139.9691  141.0848  166.2572 C.ar    1  UNL1        0.0175
     30 C         139.0950  140.0469  166.8964 C.ar    1  UNL1        0.0053
     31 C         138.6851  138.8304  166.1205 C.ar    1  UNL1        0.0715
     32 C         139.1494  138.6517  164.7054 C.ar    1  UNL1        0.0053
     33 C         140.0235  139.6895  164.0662 C.ar    1  UNL1        0.0175
     34 C         137.8109  137.7925  166.7598 C.3     1  UNL1        0.4186
     35 F         136.9367  136.7545  167.3989 F       1  UNL1       -0.1659
     36 F         138.2456  136.7922  165.7300 F       1  UNL1       -0.1659
     37 F         137.3762  138.7928  167.7895 F       1  UNL1       -0.1659
@<TRIPOS>BOND
     1     7     8    2
     2     8     9   am
     3     9    11    1
     4    11    12    1
     5    12    13   ar
     6    13    14    1
     7    13    15   ar
     8    15    16   ar
     9    16    17    1
    10    16    18   ar
    11    18    19   ar
    12    19    20    1
    13     8     1    1
    14     1     2    1
    15     2     3    1
    16     3     4    1
    17     4    22    1
    18    22    23    1
    19    23    24   ar
    20    24    25   ar
    21    25    26   ar
    22    26    28    1
    23    28    29   ar
    24    29    30   ar
    25    30    31   ar
    26    31    34    1
    27    34    35    1
    28    34    36    1
    29    34    37    1
    30    31    32   ar
    31    32    33   ar
    32    26    27   ar
    33     4     5    1
    34     5     6    1
    35    19    12   ar
    36     6     1    1
    37    27    23   ar
    38    33    28   ar
    39     9    10    1
    40    14    21    1
@<TRIPOS>MOLECULE
*****
 37 40 0 0 0
SMALL
GASTEIGER

@<TRIPOS>ATOM
      1 C         142.1825  137.2570  157.6876 C.3     1  UNL1        0.0793
      2 C         142.7882  137.6941  158.9884 C.3     1  UNL1        0.0264
      3 C         141.9841  138.5159  159.9516 C.3     1  UNL1        0.0729
      4 N         140.5740  138.9007  159.6141 N.3     1  UNL1       -0.2689
      5 C         139.9683  138.4636  158.3133 C.3     1  UNL1        0.0729
      6 C         140.7725  137.6418  157.3501 C.3     1  UNL1        0.0264
      7 O         144.1665  137.0415  156.0242 O.2     1  UNL1       -0.2751
      8 C         142.9866  136.4352  156.7244 C.2     1  UNL1        0.2223
      9 N         142.6109  135.0070  156.4613 N.am    1  UNL1       -0.3003
     10 H         141.8365  134.6090  156.9208 H       1  UNL1        0.1497
     11 C         143.4151  134.1852  155.4981 C.3     1  UNL1        0.1202
     12 C         143.7543  132.7616  155.8278 C.ar    1  UNL1        0.0418
     13 C         144.2568  132.4080  157.1961 C.ar    1  UNL1        0.1329
     14 O         144.4202  133.4779  158.2348 O.3     1  UNL1       -0.5057
     15 C         144.5960  130.9846  157.5258 C.ar    1  UNL1        0.0478
     16 C         144.4326  129.9148  156.4872 C.ar    1  UNL1        0.0615
     17 CL        144.7719  128.4913  156.8169 Cl      1  UNL1       -0.0821
     18 C         143.9301  130.2684  155.1188 C.ar    1  UNL1        0.0227
     19 C         143.5909  131.6918  154.7892 C.ar    1  UNL1        0.0590
     20 CL        143.0884  132.0455  153.4208 Cl      1  UNL1       -0.0824
     21 H         144.2083  134.3671  158.0288 H       1  UNL1        0.2922
     22 C         139.7699  139.7225  160.5773 C.3     1  UNL1        0.1007
     23 C         139.5446  139.2311  161.9765 C.ar    1  UNL1        0.0129
     24 C         138.8506  137.9587  162.3631 C.ar    1  UNL1        0.0176
     25 C         138.8508  137.8669  163.8603 C.ar    1  UNL1        0.0799
     26 N         139.5449  139.0826  164.3991 N.ar    1  UNL1       -0.3038
     27 C         139.9737  139.9257  163.2348 C.ar    1  UNL1        0.0772
     28 C         139.7707  139.3995  165.8477 C.ar    1  UNL1        0.0640
     29 C         141.1577  139.6755  166.3478 C.ar    1  UNL1        0.0175
     30 C         141.3834  139.9924  167.7964 C.ar    1  UNL1        0.0053
     31 C         140.2221  140.0335  168.7449 C.ar    1  UNL1        0.0715
     32 C         138.8351  139.7575  168.2448 C.ar    1  UNL1        0.0053
     33 C         138.6094  139.4406  166.7962 C.ar    1  UNL1        0.0175
     34 C         140.4478  140.3504  170.1936 C.3     1  UNL1        0.4186
     35 F         140.6735  140.6673  171.6423 F       1  UNL1       -0.1659
     36 F         141.3320  139.1453  170.3195 F       1  UNL1       -0.1659
     37 F         139.5636  141.5555  170.0677 F       1  UNL1       -0.1659
@<TRIPOS>BOND
     1     7     8    2
     2     8     9   am
     3     9    11    1
     4    11    12    1
     5    12    13   ar
     6    13    14    1
     7    13    15   ar
     8    15    16   ar
     9    16    17    1
    10    16    18   ar
    11    18    19   ar
    12    19    20    1
    13     8     1    1
    14     1     2    1
    15     2     3    1
    16     3     4    1
    17     4    22    1
    18    22    23    1
    19    23    24   ar
    20    24    25   ar
    21    25    26   ar
    22    26    28    1
    23    28    29   ar
    24    29    30   ar
    25    30    31   ar
    26    31    34    1
    27    34    35    1
    28    34    36    1
    29    34    37    1
    30    31    32   ar
    31    32    33   ar
    32    26    27   ar
    33     4     5    1
    34     5     6    1
    35    19    12   ar
    36     6     1    1
    37    27    23   ar
    38    33    28   ar
    39     9    10    1
    40    14    21    1
@<TRIPOS>MOLECULE
*****
 37 40 0 0 0
SMALL
GASTEIGER

@<TRIPOS>ATOM
      1 C         142.1524  137.2316  157.6856 C.3     1  UNL1        0.0793
      2 C         140.7525  137.6344  157.3278 C.3     1  UNL1        0.0264
      3 C         139.9435  138.4627  158.2813 C.3     1  UNL1        0.0729
      4 N         140.5343  138.8883  159.5928 N.3     1  UNL1       -0.2689
      5 C         141.9342  138.4855  159.9506 C.3     1  UNL1        0.0729
      6 C         142.7432  137.6571  158.9970 C.3     1  UNL1        0.0264
      7 O         144.1380  137.0082  156.0251 O.2     1  UNL1       -0.2751
      8 C         142.9614  136.4033  156.7320 C.2     1  UNL1        0.2223
      9 N         142.5939  134.9700  156.4854 N.am    1  UNL1       -0.3003
     10 H         141.8217  134.5730  156.9494 H       1  UNL1        0.1497
     11 C         143.4029  134.1417  155.5318 C.3     1  UNL1        0.1202
     12 C         143.7510  132.7244  155.8785 C.ar    1  UNL1        0.0418
     13 C         144.2350  132.3867  157.2575 C.ar    1  UNL1        0.1329
     14 O         144.3709  133.4664  158.2899 O.3     1  UNL1       -0.5057
     15 C         144.5830  130.9695  157.6041 C.ar    1  UNL1        0.0478
     16 C         144.4470  129.8898  156.5717 C.ar    1  UNL1        0.0615
     17 CL        144.7951  128.4725  156.9183 Cl      1  UNL1       -0.0821
     18 C         143.9630  130.2275  155.1927 C.ar    1  UNL1        0.0227
     19 C         143.6150  131.6447  154.8461 C.ar    1  UNL1        0.0590
     20 CL        143.1310  131.9824  153.4670 Cl      1  UNL1       -0.0824
     21 H         144.1535  134.3517  158.0734 H       1  UNL1        0.2922
     22 C         139.7253  139.7166  160.5464 C.3     1  UNL1        0.1007
     23 C         139.5374  139.2605  161.9629 C.ar    1  UNL1        0.0129
     24 C         138.7604  138.0563  162.4058 C.ar    1  UNL1        0.0176
     25 C         138.8363  137.9800  163.9019 C.ar    1  UNL1        0.0799
     26 N         139.6602  139.1372  164.3838 N.ar    1  UNL1       -0.3038
     27 C         140.0935  139.9285  163.1854 C.ar    1  UNL1        0.0772
     28 C         139.9924  139.4484  165.8130 C.ar    1  UNL1        0.0640
     29 C         141.4241  139.5990  166.2345 C.ar    1  UNL1        0.0175
     30 C         141.7563  139.9102  167.6638 C.ar    1  UNL1        0.0053
     31 C         140.6569  140.0707  168.6715 C.ar    1  UNL1        0.0715
     32 C         139.2252  139.9202  168.2499 C.ar    1  UNL1        0.0053
     33 C         138.8930  139.6090  166.8207 C.ar    1  UNL1        0.0175
     34 C         140.9891  140.3820  170.1008 C.3     1  UNL1        0.4186
     35 F         141.3213  140.6932  171.5300 F       1  UNL1       -0.1659
     36 F         140.3314  141.7229  169.9617 F       1  UNL1       -0.1659
     37 F         141.6468  139.0411  170.2398 F       1  UNL1       -0.1659
@<TRIPOS>BOND
     1     7     8    2
     2     8     9   am
     3     9    11    1
     4    11    12    1
     5    12    13   ar
     6    13    14    1
     7    13    15   ar
     8    15    16   ar
     9    16    17    1
    10    16    18   ar
    11    18    19   ar
    12    19    20    1
    13     8     1    1
    14     1     2    1
    15     2     3    1
    16     3     4    1
    17     4    22    1
    18    22    23    1
    19    23    24   ar
    20    24    25   ar
    21    25    26   ar
    22    26    28    1
    23    28    29   ar
    24    29    30   ar
    25    30    31   ar
    26    31    34    1
    27    34    35    1
    28    34    36    1
    29    34    37    1
    30    31    32   ar
    31    32    33   ar
    32    26    27   ar
    33     4     5    1
    34     5     6    1
    35    19    12   ar
    36     6     1    1
    37    27    23   ar
    38    33    28   ar
    39     9    10    1
    40    14    21    1
@<TRIPOS>MOLECULE
*****
 37 40 0 0 0
SMALL
GASTEIGER

@<TRIPOS>ATOM
      1 C         140.9400  144.9734  157.5638 C.3     1  UNL1        0.0793
      2 C         142.1970  144.2672  157.1501 C.3     1  UNL1        0.0264
      3 C         143.0996  143.6716  158.1896 C.3     1  UNL1        0.0729
      4 N         142.7451  143.7822  159.6430 N.3     1  UNL1       -0.2689
      5 C         141.4880  144.4884  160.0567 C.3     1  UNL1        0.0729
      6 C         140.5855  145.0840  159.0171 C.3     1  UNL1        0.0264
      7 O         138.8059  144.8317  156.0889 O.2     1  UNL1       -0.2751
      8 C         140.0375  145.5690  156.5243 C.2     1  UNL1        0.2223
      9 N         140.3665  146.9020  155.9201 N.am    1  UNL1       -0.3003
     10 H         141.1748  147.3860  156.2059 H       1  UNL1        0.1497
     11 C         139.4640  147.4977  154.8806 C.3     1  UNL1        0.1202
     12 C         139.2417  148.9806  154.8410 C.ar    1  UNL1        0.0418
     13 C         138.6489  149.6821  156.0270 C.ar    1  UNL1        0.1329
     14 O         138.2783  148.9006  157.2526 O.3     1  UNL1       -0.5057
     15 C         138.4266  151.1649  155.9874 C.ar    1  UNL1        0.0478
     16 C         138.7972  151.9464  154.7618 C.ar    1  UNL1        0.0615
     17 CL        138.5749  153.4293  154.7222 Cl      1  UNL1       -0.0821
     18 C         139.3900  151.2449  153.5758 C.ar    1  UNL1        0.0227
     19 C         139.6123  149.7621  153.6155 C.ar    1  UNL1        0.0590
     20 CL        140.2051  149.0605  152.4295 Cl      1  UNL1       -0.0824
     21 H         138.4172  147.9743  157.2773 H       1  UNL1        0.2922
     22 C         143.6476  143.1866  160.6825 C.3     1  UNL1        0.1007
     23 C         143.3608  143.4046  162.1386 C.ar    1  UNL1        0.0129
     24 C         143.6108  144.6683  162.9069 C.ar    1  UNL1        0.0176
     25 C         143.1782  144.4419  164.3252 C.ar    1  UNL1        0.0799
     26 N         142.6608  143.0381  164.4335 N.ar    1  UNL1       -0.3038
     27 C         142.7737  142.3970  163.0821 C.ar    1  UNL1        0.0772
     28 C         142.1246  142.3893  165.6751 C.ar    1  UNL1        0.0640
     29 C         140.7612  142.7539  166.1830 C.ar    1  UNL1        0.0175
     30 C         140.2251  142.1051  167.4246 C.ar    1  UNL1        0.0053
     31 C         141.0524  141.0916  168.1582 C.ar    1  UNL1        0.0715
     32 C         142.4159  140.7269  167.6503 C.ar    1  UNL1        0.0053
     33 C         142.9520  141.3758  166.4087 C.ar    1  UNL1        0.0175
     34 C         140.5163  140.4427  169.3999 C.3     1  UNL1        0.4186
     35 F         139.9803  139.7939  170.6415 F       1  UNL1       -0.1659
     36 F         141.5615  139.3723  169.2917 F       1  UNL1       -0.1659
     37 F         139.4712  141.5132  169.5080 F       1  UNL1       -0.1659
@<TRIPOS>BOND
     1     7     8    2
     2     8     9   am
     3     9    11    1
     4    11    12    1
     5    12    13   ar
     6    13    14    1
     7    13    15   ar
     8    15    16   ar
     9    16    17    1
    10    16    18   ar
    11    18    19   ar
    12    19    20    1
    13     8     1    1
    14     1     2    1
    15     2     3    1
    16     3     4    1
    17     4    22    1
    18    22    23    1
    19    23    24   ar
    20    24    25   ar
    21    25    26   ar
    22    26    28    1
    23    28    29   ar
    24    29    30   ar
    25    30    31   ar
    26    31    34    1
    27    34    35    1
    28    34    36    1
    29    34    37    1
    30    31    32   ar
    31    32    33   ar
    32    26    27   ar
    33     4     5    1
    34     5     6    1
    35    19    12   ar
    36     6     1    1
    37    27    23   ar
    38    33    28   ar
    39     9    10    1
    40    14    21    1
@<TRIPOS>MOLECULE
*****
 37 40 0 0 0
SMALL
GASTEIGER

@<TRIPOS>ATOM
      1 C         140.9136  144.8933  157.8268 C.3     1  UNL1        0.0793
      2 C         140.6606  145.0285  159.2991 C.3     1  UNL1        0.0264
      3 C         141.6237  144.4336  160.2833 C.3     1  UNL1        0.0729
      4 N         142.8397  143.7035  159.7951 N.3     1  UNL1       -0.2689
      5 C         143.0927  143.5683  158.3228 C.3     1  UNL1        0.0729
      6 C         142.1295  144.1633  157.3386 C.3     1  UNL1        0.0264
      7 O         139.1567  144.5948  155.9362 O.2     1  UNL1       -0.2751
      8 C         139.9505  145.4882  156.8427 C.2     1  UNL1        0.2223
      9 N         139.7812  146.9767  156.7649 N.am    1  UNL1       -0.3003
     10 H         140.3021  147.5631  157.3599 H       1  UNL1        0.1497
     11 C         138.8181  147.5716  155.7808 C.3     1  UNL1        0.1202
     12 C         138.9847  148.9939  155.3344 C.ar    1  UNL1        0.0418
     13 C         139.5606  149.2930  153.9820 C.ar    1  UNL1        0.1329
     14 O         139.9698  148.1698  153.0760 O.3     1  UNL1       -0.5057
     15 C         139.7271  150.7153  153.5357 C.ar    1  UNL1        0.0478
     16 C         139.3178  151.8386  154.4418 C.ar    1  UNL1        0.0615
     17 CL        139.4844  153.2609  153.9954 Cl      1  UNL1       -0.0821
     18 C         138.7420  151.5395  155.7941 C.ar    1  UNL1        0.0227
     19 C         138.5754  150.1172  156.2404 C.ar    1  UNL1        0.0590
     20 CL        137.9996  149.8180  157.5929 Cl      1  UNL1       -0.0824
     21 H         139.8658  147.2813  153.3548 H       1  UNL1        0.2922
     22 C         143.8028  143.1086  160.7793 C.3     1  UNL1        0.1007
     23 C         143.5708  143.2775  162.2515 C.ar    1  UNL1        0.0129
     24 C         143.9761  144.4619  163.0779 C.ar    1  UNL1        0.0176
     25 C         143.5485  144.2081  164.4930 C.ar    1  UNL1        0.0799
     26 N         142.8788  142.8667  164.5414 N.ar    1  UNL1       -0.3038
     27 C         142.8926  142.2916  163.1560 C.ar    1  UNL1        0.0772
     28 C         142.2975  142.2149  165.7608 C.ar    1  UNL1        0.0640
     29 C         142.9487  140.9949  166.3418 C.ar    1  UNL1        0.0175
     30 C         142.3673  140.3432  167.5612 C.ar    1  UNL1        0.0053
     31 C         141.1347  140.9114  168.1997 C.ar    1  UNL1        0.0715
     32 C         140.4834  142.1314  167.6188 C.ar    1  UNL1        0.0053
     33 C         141.0649  142.7831  166.3994 C.ar    1  UNL1        0.0175
     34 C         140.5532  140.2596  169.4193 C.3     1  UNL1        0.4186
     35 F         139.9719  139.6078  170.6388 F       1  UNL1       -0.1659
     36 F         141.6708  139.2591  169.4173 F       1  UNL1       -0.1659
     37 F         139.4357  141.2601  169.4212 F       1  UNL1       -0.1659
@<TRIPOS>BOND
     1     7     8    2
     2     8     9   am
     3     9    11    1
     4    11    12    1
     5    12    13   ar
     6    13    14    1
     7    13    15   ar
     8    15    16   ar
     9    16    17    1
    10    16    18   ar
    11    18    19   ar
    12    19    20    1
    13     8     1    1
    14     1     2    1
    15     2     3    1
    16     3     4    1
    17     4    22    1
    18    22    23    1
    19    23    24   ar
    20    24    25   ar
    21    25    26   ar
    22    26    28    1
    23    28    29   ar
    24    29    30   ar
    25    30    31   ar
    26    31    34    1
    27    34    35    1
    28    34    36    1
    29    34    37    1
    30    31    32   ar
    31    32    33   ar
    32    26    27   ar
    33     4     5    1
    34     5     6    1
    35    19    12   ar
    36     6     1    1
    37    27    23   ar
    38    33    28   ar
    39     9    10    1
    40    14    21    1
@<TRIPOS>MOLECULE
*****
 37 40 0 0 0
SMALL
GASTEIGER

@<TRIPOS>ATOM
      1 C         139.9043  144.2356  158.5322 C.3     1  UNL1        0.0793
      2 C         139.9395  144.9951  157.2392 C.3     1  UNL1        0.0264
      3 C         139.3466  144.3935  155.9996 C.3     1  UNL1        0.0729
      4 N         138.7184  143.0323  156.0531 N.3     1  UNL1       -0.2689
      5 C         138.6832  142.2729  157.3462 C.3     1  UNL1        0.0729
      6 C         139.2761  142.8746  158.5857 C.3     1  UNL1        0.0264
      7 O         141.9676  145.1266  159.8356 O.2     1  UNL1       -0.2751
      8 C         140.4971  144.8372  159.7717 C.2     1  UNL1        0.2223
      9 N         139.6196  145.1495  160.9476 N.am    1  UNL1       -0.3003
     10 H         138.6545  144.9596  160.9057 H       1  UNL1        0.1497
     11 C         140.2125  145.7511  162.1871 C.3     1  UNL1        0.1202
     12 C         140.7563  144.8622  163.2661 C.ar    1  UNL1        0.0418
     13 C         142.2279  144.5798  163.3344 C.ar    1  UNL1        0.1329
     14 O         143.1557  145.1864  162.3238 O.3     1  UNL1       -0.5057
     15 C         142.7716  143.6909  164.4133 C.ar    1  UNL1        0.0478
     16 C         141.8438  143.0843  165.4239 C.ar    1  UNL1        0.0615
     17 CL        142.3877  142.1954  166.5028 Cl      1  UNL1       -0.0821
     18 C         140.3723  143.3667  165.3555 C.ar    1  UNL1        0.0227
     19 C         139.8285  144.2556  164.2766 C.ar    1  UNL1        0.0590
     20 CL        138.3569  144.5380  164.2082 Cl      1  UNL1       -0.0824
     21 H         142.8160  145.7417  161.6498 H       1  UNL1        0.2922
     22 C         138.1255  142.4307  154.8136 C.3     1  UNL1        0.1007
     23 C         137.0174  141.4258  154.9238 C.ar    1  UNL1        0.0129
     24 C         137.0140  140.0483  154.3302 C.ar    1  UNL1        0.0176
     25 C         135.7126  139.3931  154.6864 C.ar    1  UNL1        0.0799
     26 N         134.9115  140.3658  155.5002 N.ar    1  UNL1       -0.3038
     27 C         135.7179  141.6220  155.6469 C.ar    1  UNL1        0.0772
     28 C         133.5441  140.1245  156.0677 C.ar    1  UNL1        0.0640
     29 C         133.3303  139.0282  157.0689 C.ar    1  UNL1        0.0175
     30 C         131.9629  138.7870  157.6363 C.ar    1  UNL1        0.0053
     31 C         130.8094  139.6421  157.2026 C.ar    1  UNL1        0.0715
     32 C         131.0232  140.7384  156.2014 C.ar    1  UNL1        0.0053
     33 C         132.3906  140.9796  155.6340 C.ar    1  UNL1        0.0175
     34 C         129.4419  139.4009  157.7701 C.3     1  UNL1        0.4186
     35 F         128.0745  139.1597  158.3376 F       1  UNL1       -0.1659
     36 F         130.0304  138.4781  158.7958 F       1  UNL1       -0.1659
     37 F         128.8535  140.3237  156.7444 F       1  UNL1       -0.1659
@<TRIPOS>BOND
     1     7     8    2
     2     8     9   am
     3     9    11    1
     4    11    12    1
     5    12    13   ar
     6    13    14    1
     7    13    15   ar
     8    15    16   ar
     9    16    17    1
    10    16    18   ar
    11    18    19   ar
    12    19    20    1
    13     8     1    1
    14     1     2    1
    15     2     3    1
    16     3     4    1
    17     4    22    1
    18    22    23    1
    19    23    24   ar
    20    24    25   ar
    21    25    26   ar
    22    26    28    1
    23    28    29   ar
    24    29    30   ar
    25    30    31   ar
    26    31    34    1
    27    34    35    1
    28    34    36    1
    29    34    37    1
    30    31    32   ar
    31    32    33   ar
    32    26    27   ar
    33     4     5    1
    34     5     6    1
    35    19    12   ar
    36     6     1    1
    37    27    23   ar
    38    33    28   ar
    39     9    10    1
    40    14    21    1
@<TRIPOS>MOLECULE
*****
 37 40 0 0 0
SMALL
GASTEIGER

@<TRIPOS>ATOM
      1 C         142.8949  138.8683  158.9759 C.3     1  UNL1        0.0793
      2 C         142.9591  140.3154  158.5863 C.3     1  UNL1        0.0264
      3 C         143.5997  141.3120  159.5062 C.3     1  UNL1        0.0729
      4 N         144.1762  140.8616  160.8157 N.3     1  UNL1       -0.2689
      5 C         144.1120  139.4145  161.2053 C.3     1  UNL1        0.0729
      6 C         143.4714  138.4178  160.2853 C.3     1  UNL1        0.0264
      7 O         140.8328  138.0619  157.6167 O.2     1  UNL1       -0.2751
      8 C         142.2544  137.8716  158.0560 C.2     1  UNL1        0.2223
      9 N         143.0354  136.6845  157.5752 N.am    1  UNL1       -0.3003
     10 H         143.9684  136.5596  157.8635 H       1  UNL1        0.1497
     11 C         142.3948  135.6879  156.6554 C.3     1  UNL1        0.1202
     12 C         143.0274  134.3436  156.4482 C.ar    1  UNL1        0.0418
     13 C         143.6685  133.6307  157.6017 C.ar    1  UNL1        0.1329
     14 O         143.6770  134.2619  158.9624 O.3     1  UNL1       -0.5057
     15 C         144.3011  132.2865  157.3946 C.ar    1  UNL1        0.0478
     16 C         144.2927  131.6553  156.0339 C.ar    1  UNL1        0.0615
     17 CL        144.9254  130.3111  155.8267 Cl      1  UNL1       -0.0821
     18 C         143.6516  132.3682  154.8803 C.ar    1  UNL1        0.0227
     19 C         143.0190  133.7124  155.0875 C.ar    1  UNL1        0.0590
     20 CL        142.3779  134.4254  153.9340 Cl      1  UNL1       -0.0824
     21 H         143.2818  135.1015  159.0918 H       1  UNL1        0.2922
     22 C         144.8167  141.8583  161.7356 C.3     1  UNL1        0.1007
     23 C         144.1221  142.2654  163.0013 C.ar    1  UNL1        0.0129
     24 C         143.8593  143.6725  163.4494 C.ar    1  UNL1        0.0176
     25 C         143.1431  143.6136  164.7661 C.ar    1  UNL1        0.0799
     26 N         142.9633  142.1700  165.1317 N.ar    1  UNL1       -0.3038
     27 C         143.5684  141.3368  164.0410 C.ar    1  UNL1        0.0772
     28 C         142.2957  141.6507  166.3705 C.ar    1  UNL1        0.0640
     29 C         141.1009  140.7509  166.2576 C.ar    1  UNL1        0.0175
     30 C         140.4334  140.2317  167.4964 C.ar    1  UNL1        0.0053
     31 C         140.9605  140.6123  168.8481 C.ar    1  UNL1        0.0715
     32 C         142.1553  141.5122  168.9610 C.ar    1  UNL1        0.0053
     33 C         142.8229  142.0314  167.7222 C.ar    1  UNL1        0.0175
     34 C         140.2929  140.0931  170.0870 C.3     1  UNL1        0.4186
     35 F         139.6253  139.5739  171.3259 F       1  UNL1       -0.1659
     36 F         139.1896  141.0941  169.9119 F       1  UNL1       -0.1659
     37 F         141.3962  139.0922  170.2621 F       1  UNL1       -0.1659
@<TRIPOS>BOND
     1     7     8    2
     2     8     9   am
     3     9    11    1
     4    11    12    1
     5    12    13   ar
     6    13    14    1
     7    13    15   ar
     8    15    16   ar
     9    16    17    1
    10    16    18   ar
    11    18    19   ar
    12    19    20    1
    13     8     1    1
    14     1     2    1
    15     2     3    1
    16     3     4    1
    17     4    22    1
    18    22    23    1
    19    23    24   ar
    20    24    25   ar
    21    25    26   ar
    22    26    28    1
    23    28    29   ar
    24    29    30   ar
    25    30    31   ar
    26    31    34    1
    27    34    35    1
    28    34    36    1
    29    34    37    1
    30    31    32   ar
    31    32    33   ar
    32    26    27   ar
    33     4     5    1
    34     5     6    1
    35    19    12   ar
    36     6     1    1
    37    27    23   ar
    38    33    28   ar
    39     9    10    1
    40    14    21    1
@<TRIPOS>MOLECULE
*****
 37 40 0 0 0
SMALL
GASTEIGER

@<TRIPOS>ATOM
      1 C         141.8661  138.9095  158.5141 C.3     1  UNL1        0.0793
      2 C         140.4518  138.4753  158.7617 C.3     1  UNL1        0.0264
      3 C         139.5892  139.2409  159.7207 C.3     1  UNL1        0.0729
      4 N         140.1408  140.4409  160.4320 N.3     1  UNL1       -0.2689
      5 C         141.5550  140.8751  160.1843 C.3     1  UNL1        0.0729
      6 C         142.4177  140.1094  159.2253 C.3     1  UNL1        0.0264
      7 O         143.8930  138.8176  156.8914 O.2     1  UNL1       -0.2751
      8 C         142.7287  138.1438  157.5552 C.2     1  UNL1        0.2223
      9 N         142.4271  136.7044  157.2599 N.am    1  UNL1       -0.3003
     10 H         141.6629  136.2622  157.6956 H       1  UNL1        0.1497
     11 C         143.2897  135.9387  156.3010 C.3     1  UNL1        0.1202
     12 C         143.0125  134.4885  156.0364 C.ar    1  UNL1        0.0418
     13 C         143.1844  133.4798  157.1331 C.ar    1  UNL1        0.1329
     14 O         143.6334  133.9212  158.4945 O.3     1  UNL1       -0.5057
     15 C         142.9072  132.0296  156.8684 C.ar    1  UNL1        0.0478
     16 C         142.4581  131.5881  155.5070 C.ar    1  UNL1        0.0615
     17 CL        142.1809  130.1379  155.2424 Cl      1  UNL1       -0.0821
     18 C         142.2863  132.5968  154.4103 C.ar    1  UNL1        0.0227
     19 C         142.5635  134.0470  154.6749 C.ar    1  UNL1        0.0590
     20 CL        142.3916  135.0558  153.5782 Cl      1  UNL1       -0.0824
     21 H         143.8066  134.8271  158.6599 H       1  UNL1        0.2922
     22 C         139.2781  141.2065  161.3909 C.3     1  UNL1        0.1007
     23 C         139.1818  140.7729  162.8236 C.ar    1  UNL1        0.0129
     24 C         137.9438  140.2847  163.5158 C.ar    1  UNL1        0.0176
     25 C         138.3035  139.9615  164.9357 C.ar    1  UNL1        0.0799
     26 N         139.7637  140.2499  165.1212 N.ar    1  UNL1       -0.3038
     27 C         140.3066  140.7514  163.8158 C.ar    1  UNL1        0.0772
     28 C         140.5442  140.0687  166.3893 C.ar    1  UNL1        0.0640
     29 C         141.9233  139.4806  166.3436 C.ar    1  UNL1        0.0175
     30 C         142.7037  139.2994  167.6117 C.ar    1  UNL1        0.0053
     31 C         142.1050  139.7064  168.9254 C.ar    1  UNL1        0.0715
     32 C         140.7258  140.2945  168.9711 C.ar    1  UNL1        0.0053
     33 C         139.9455  140.4757  167.7030 C.ar    1  UNL1        0.0175
     34 C         142.8854  139.5252  170.1936 C.3     1  UNL1        0.4186
     35 F         143.6658  139.3439  171.4618 F       1  UNL1       -0.1659
     36 F         142.8769  138.0396  169.9865 F       1  UNL1       -0.1659
     37 F         142.8938  141.0107  170.4007 F       1  UNL1       -0.1659
@<TRIPOS>BOND
     1     7     8    2
     2     8     9   am
     3     9    11    1
     4    11    12    1
     5    12    13   ar
     6    13    14    1
     7    13    15   ar
     8    15    16   ar
     9    16    17    1
    10    16    18   ar
    11    18    19   ar
    12    19    20    1
    13     8     1    1
    14     1     2    1
    15     2     3    1
    16     3     4    1
    17     4    22    1
    18    22    23    1
    19    23    24   ar
    20    24    25   ar
    21    25    26   ar
    22    26    28    1
    23    28    29   ar
    24    29    30   ar
    25    30    31   ar
    26    31    34    1
    27    34    35    1
    28    34    36    1
    29    34    37    1
    30    31    32   ar
    31    32    33   ar
    32    26    27   ar
    33     4     5    1
    34     5     6    1
    35    19    12   ar
    36     6     1    1
    37    27    23   ar
    38    33    28   ar
    39     9    10    1
    40    14    21    1
@<TRIPOS>MOLECULE
*****
 37 40 0 0 0
SMALL
GASTEIGER

@<TRIPOS>ATOM
      1 C         137.6250  142.1803  156.9088 C.3     1  UNL1        0.0793
      2 C         137.9608  141.8307  158.3283 C.3     1  UNL1        0.0264
      3 C         138.9915  142.6265  159.0729 C.3     1  UNL1        0.0729
      4 N         139.6863  143.7719  158.3981 N.3     1  UNL1       -0.2689
      5 C         139.3504  144.1215  156.9786 C.3     1  UNL1        0.0729
      6 C         138.3197  143.3257  156.2339 C.3     1  UNL1        0.0264
      7 O         136.8680  139.9547  155.8026 O.2     1  UNL1       -0.2751
      8 C         136.5944  141.3846  156.1641 C.2     1  UNL1        0.2223
      9 N         135.2900  142.0186  155.7810 N.am    1  UNL1       -0.3003
     10 H         135.1104  142.9570  156.0183 H       1  UNL1        0.1497
     11 C         134.2594  141.2228  155.0364 C.3     1  UNL1        0.1202
     12 C         132.9920  140.8079  155.7231 C.ar    1  UNL1        0.0418
     13 C         133.0510  139.9463  156.9496 C.ar    1  UNL1        0.1329
     14 O         134.3773  139.4996  157.4893 O.3     1  UNL1       -0.5057
     15 C         131.7836  139.5313  157.6362 C.ar    1  UNL1        0.0478
     16 C         130.4573  139.9780  157.0965 C.ar    1  UNL1        0.0615
     17 CL        129.1899  139.5630  157.7833 Cl      1  UNL1       -0.0821
     18 C         130.3983  140.8396  155.8701 C.ar    1  UNL1        0.0227
     19 C         131.6656  141.2545  155.1834 C.ar    1  UNL1        0.0590
     20 CL        131.6067  142.1162  153.9570 Cl      1  UNL1       -0.0824
     21 H         135.1690  139.7588  157.0603 H       1  UNL1        0.2922
     22 C         140.7169  144.5677  159.1427 C.3     1  UNL1        0.1007
     23 C         140.6573  144.6586  160.6388 C.ar    1  UNL1        0.0129
     24 C         139.9371  145.7098  161.4302 C.ar    1  UNL1        0.0176
     25 C         140.1422  145.4152  162.8867 C.ar    1  UNL1        0.0799
     26 N         140.9891  144.1819  162.9954 N.ar    1  UNL1       -0.3038
     27 C         141.3075  143.7144  161.6061 C.ar    1  UNL1        0.0772
     28 C         141.4387  143.5306  164.2695 C.ar    1  UNL1        0.0640
     29 C         140.4334  143.1687  165.3223 C.ar    1  UNL1        0.0175
     30 C         140.8830  142.5174  166.5964 C.ar    1  UNL1        0.0053
     31 C         142.3381  142.2280  166.8179 C.ar    1  UNL1        0.0715
     32 C         143.3435  142.5898  165.7651 C.ar    1  UNL1        0.0053
     33 C         142.8938  143.2411  164.4910 C.ar    1  UNL1        0.0175
     34 C         142.7878  141.5766  168.0921 C.3     1  UNL1        0.4186
     35 F         143.2375  140.9252  169.3662 F       1  UNL1       -0.1659
     36 F         142.9305  140.2681  167.3728 F       1  UNL1       -0.1659
     37 F         142.6451  142.8851  168.8113 F       1  UNL1       -0.1659
@<TRIPOS>BOND
     1     7     8    2
     2     8     9   am
     3     9    11    1
     4    11    12    1
     5    12    13   ar
     6    13    14    1
     7    13    15   ar
     8    15    16   ar
     9    16    17    1
    10    16    18   ar
    11    18    19   ar
    12    19    20    1
    13     8     1    1
    14     1     2    1
    15     2     3    1
    16     3     4    1
    17     4    22    1
    18    22    23    1
    19    23    24   ar
    20    24    25   ar
    21    25    26   ar
    22    26    28    1
    23    28    29   ar
    24    29    30   ar
    25    30    31   ar
    26    31    34    1
    27    34    35    1
    28    34    36    1
    29    34    37    1
    30    31    32   ar
    31    32    33   ar
    32    26    27   ar
    33     4     5    1
    34     5     6    1
    35    19    12   ar
    36     6     1    1
    37    27    23   ar
    38    33    28   ar
    39     9    10    1
    40    14    21    1
