@<TRIPOS>MOLECULE
*****
 28 31 0 0 0
SMALL
GASTEIGER

@<TRIPOS>ATOM
      1 C         142.5561  138.9305  169.7947 C.3     1  UNL1        0.2120
      2 O         141.8013  139.9364  170.6123 O.3     1  UNL1       -0.4344
      3 C         141.3023  141.0058  169.6864 C.2     1  UNL1        0.4089
      4 O         140.4981  142.2089  170.0810 O.2     1  UNL1       -0.2258
      5 N         141.7487  140.6608  168.2965 N.am    1  UNL1       -0.2164
      6 C         141.5496  141.3489  166.9786 C.ar    1  UNL1        0.0910
      7 C         140.7747  142.6315  166.9117 C.ar    1  UNL1        0.0181
      8 C         140.5757  143.3195  165.5938 C.ar    1  UNL1        0.0015
      9 C         141.1515  142.7250  164.3428 C.ar    1  UNL1        0.0046
     10 C         141.9264  141.4424  164.4097 C.ar    1  UNL1        0.0382
     11 C         142.1254  140.7544  165.7276 C.ar    1  UNL1        0.1522
     12 O         142.9004  139.4717  165.7946 O.3     1  UNL1       -0.4723
     13 C         143.0994  138.7837  167.1125 C.3     1  UNL1        0.2293
     14 C         142.5235  139.3782  168.3635 C.3     1  UNL1        0.1682
     15 C         140.9524  143.4131  163.0248 C.ar    1  UNL1        0.0193
     16 C         140.6117  144.8733  162.9851 C.ar    1  UNL1        0.0038
     17 C         140.4126  145.5615  161.6671 C.ar    1  UNL1        0.0297
     18 C         140.5543  144.7893  160.3890 C.ar    1  UNL1        0.1492
     19 N         140.8950  143.3290  160.4288 N.ar    1  UNL1       -0.2335
     20 C         141.0941  142.6410  161.7467 C.ar    1  UNL1        0.0996
     21 C         140.3552  145.4773  159.0711 C.1     1  UNL1        0.1198
     22 N         140.1562  146.1654  157.7532 N.1     1  UNL1       -0.1893
     23 C         143.2259  137.6939  170.3167 C.3     1  UNL1        0.1353
     24 C         146.1427  136.7026  172.8187 C.3     1  UNL1        0.0946
     25 C         145.0780  136.5921  171.7678 C.2     1  UNL1        0.2231
     26 O         144.8009  135.2693  171.1170 O.2     1  UNL1       -0.2751
     27 N         144.2905  137.8044  171.3676 N.am    1  UNL1       -0.3011
     28 H         144.4723  138.6726  171.7946 H       1  UNL1        0.1495
@<TRIPOS>BOND
     1    24    25    1
     2    25    26    2
     3    25    27   am
     4    27    23    1
     5     1    23    1
     6     1     2    1
     7     2     3    1
     8     3     4    2
     9     3     5   am
    10     5     6    1
    11     6     7   ar
    12     7     8   ar
    13     8     9   ar
    14     9    15    1
    15    15    16   ar
    16    16    17   ar
    17    17    18   ar
    18    18    21    1
    19    21    22    3
    20    18    19   ar
    21    19    20   ar
    22     9    10   ar
    23    10    11   ar
    24    11    12    1
    25    12    13    1
    26    14    13    1
    27    14     1    1
    28    14     5    1
    29    11     6   ar
    30    20    15   ar
    31    27    28    1
@<TRIPOS>MOLECULE
*****
 28 31 0 0 0
SMALL
GASTEIGER

@<TRIPOS>ATOM
      1 C         139.8333  140.2070  168.8335 C.3     1  UNL1        0.2120
      2 O         138.5259  139.4717  168.8222 O.3     1  UNL1       -0.4344
      3 C         138.2946  138.9587  167.4317 C.2     1  UNL1        0.4089
      4 O         137.1073  138.1666  166.9703 O.2     1  UNL1       -0.2258
      5 N         139.4590  139.3770  166.5837 N.am    1  UNL1       -0.2164
      6 C         139.7763  139.1550  165.1345 C.ar    1  UNL1        0.0910
      7 C         138.8253  138.3835  164.2682 C.ar    1  UNL1        0.0181
      8 C         139.1426  138.1616  162.8191 C.ar    1  UNL1        0.0015
      9 C         140.4109  138.7110  162.2363 C.ar    1  UNL1        0.0046
     10 C         141.3618  139.4825  163.1026 C.ar    1  UNL1        0.0382
     11 C         141.0445  139.7044  164.5517 C.ar    1  UNL1        0.1522
     12 O         141.9955  140.4759  165.4181 O.3     1  UNL1       -0.4723
     13 C         141.6782  140.6979  166.8672 C.3     1  UNL1        0.2293
     14 C         140.4100  140.1484  167.4500 C.3     1  UNL1        0.1682
     15 C         140.7281  138.4891  160.7870 C.ar    1  UNL1        0.0193
     16 C         139.6463  138.6114  159.7552 C.ar    1  UNL1        0.0038
     17 C         139.9636  138.3894  158.3060 C.ar    1  UNL1        0.0297
     18 C         141.3626  138.0451  157.8887 C.ar    1  UNL1        0.1492
     19 N         142.4444  137.9227  158.9207 N.ar    1  UNL1       -0.2335
     20 C         142.1271  138.1447  160.3698 C.ar    1  UNL1        0.0996
     21 C         141.6799  137.8231  156.4396 C.1     1  UNL1        0.1198
     22 N         141.9972  137.6011  154.9905 N.1     1  UNL1       -0.1893
     23 C         140.4548  140.8823  170.0200 C.3     1  UNL1        0.1353
     24 C         144.0934  142.4544  169.8222 C.3     1  UNL1        0.0946
     25 C         142.9879  141.4600  170.0192 C.2     1  UNL1        0.2231
     26 O         143.3098  140.0487  170.4125 O.2     1  UNL1       -0.2751
     27 N         141.5603  141.8767  169.8230 N.am    1  UNL1       -0.3011
     28 H         141.3489  142.8030  169.5649 H       1  UNL1        0.1495
@<TRIPOS>BOND
     1    24    25    1
     2    25    26    2
     3    25    27   am
     4    27    23    1
     5     1    23    1
     6     1     2    1
     7     2     3    1
     8     3     4    2
     9     3     5   am
    10     5     6    1
    11     6     7   ar
    12     7     8   ar
    13     8     9   ar
    14     9    15    1
    15    15    16   ar
    16    16    17   ar
    17    17    18   ar
    18    18    21    1
    19    21    22    3
    20    18    19   ar
    21    19    20   ar
    22     9    10   ar
    23    10    11   ar
    24    11    12    1
    25    12    13    1
    26    14    13    1
    27    14     1    1
    28    14     5    1
    29    11     6   ar
    30    20    15   ar
    31    27    28    1
@<TRIPOS>MOLECULE
*****
 28 31 0 0 0
SMALL
GASTEIGER

@<TRIPOS>ATOM
      1 C         140.6291  138.3555  158.2135 C.3     1  UNL1        0.2120
      2 O         139.2237  138.8312  157.9932 O.3     1  UNL1       -0.4344
      3 C         138.7118  139.3813  159.2915 C.2     1  UNL1        0.4089
      4 O         137.3500  139.9648  159.5259 O.2     1  UNL1       -0.2258
      5 N         139.8008  139.2455  160.3139 N.am    1  UNL1       -0.2164
      6 C         139.8665  139.6173  161.7657 C.ar    1  UNL1        0.0910
      7 C         138.6815  140.2513  162.4319 C.ar    1  UNL1        0.0181
      8 C         138.7473  140.6231  163.8836 C.ar    1  UNL1        0.0015
      9 C         139.9979  140.3609  164.6691 C.ar    1  UNL1        0.0046
     10 C         141.1829  139.7269  164.0029 C.ar    1  UNL1        0.0382
     11 C         141.1172  139.3551  162.5512 C.ar    1  UNL1        0.1522
     12 O         142.3022  138.7211  161.8849 O.3     1  UNL1       -0.4723
     13 C         142.2365  138.3493  160.4333 C.3     1  UNL1        0.2293
     14 C         140.9858  138.6116  159.6478 C.3     1  UNL1        0.1682
     15 C         140.0636  140.7327  166.1208 C.ar    1  UNL1        0.0193
     16 C         139.4729  139.8218  167.1558 C.ar    1  UNL1        0.0038
     17 C         139.5386  140.1936  168.6076 C.ar    1  UNL1        0.0297
     18 C         140.1950  141.4763  169.0243 C.ar    1  UNL1        0.1492
     19 N         140.7858  142.3872  167.9892 N.ar    1  UNL1       -0.2335
     20 C         140.7201  142.0154  166.5375 C.ar    1  UNL1        0.0996
     21 C         140.2607  141.8481  170.4759 C.1     1  UNL1        0.1198
     22 N         140.3264  142.2199  171.9276 N.1     1  UNL1       -0.1893
     23 C         141.5213  137.7329  157.1807 C.3     1  UNL1        0.1353
     24 C         141.6892  134.1615  155.4583 C.3     1  UNL1        0.0946
     25 C         142.1131  135.4204  156.1549 C.2     1  UNL1        0.2231
     26 O         143.5528  135.6259  156.5225 O.2     1  UNL1       -0.2751
     27 N         141.0973  136.4741  156.4841 N.am    1  UNL1       -0.3011
     28 H         140.1524  136.3393  156.2429 H       1  UNL1        0.1495
@<TRIPOS>BOND
     1    24    25    1
     2    25    26    2
     3    25    27   am
     4    27    23    1
     5     1    23    1
     6     1     2    1
     7     2     3    1
     8     3     4    2
     9     3     5   am
    10     5     6    1
    11     6     7   ar
    12     7     8   ar
    13     8     9   ar
    14     9    15    1
    15    15    16   ar
    16    16    17   ar
    17    17    18   ar
    18    18    21    1
    19    21    22    3
    20    18    19   ar
    21    19    20   ar
    22     9    10   ar
    23    10    11   ar
    24    11    12    1
    25    12    13    1
    26    14    13    1
    27    14     1    1
    28    14     5    1
    29    11     6   ar
    30    20    15   ar
    31    27    28    1
@<TRIPOS>MOLECULE
*****
 28 31 0 0 0
SMALL
GASTEIGER

@<TRIPOS>ATOM
      1 C         138.0969  141.6228  157.9210 C.3     1  UNL1        0.2120
      2 O         138.7147  142.9841  157.7983 O.3     1  UNL1       -0.4344
      3 C         139.1884  143.4025  159.1587 C.2     1  UNL1        0.4089
      4 O         139.8679  144.6964  159.4962 O.2     1  UNL1       -0.2258
      5 N         138.8634  142.2997  160.1221 N.am    1  UNL1       -0.2164
      6 C         139.0945  142.1551  161.5971 C.ar    1  UNL1        0.0910
      7 C         139.7691  143.2550  162.3620 C.ar    1  UNL1        0.0181
      8 C         140.0003  143.1103  163.8369 C.ar    1  UNL1        0.0015
      9 C         139.5568  141.8657  164.5471 C.ar    1  UNL1        0.0046
     10 C         138.8822  140.7658  163.7822 C.ar    1  UNL1        0.0382
     11 C         138.6511  140.9105  162.3073 C.ar    1  UNL1        0.1522
     12 O         137.9764  139.8105  161.5423 O.3     1  UNL1       -0.4723
     13 C         137.7453  139.9552  160.0674 C.3     1  UNL1        0.2293
     14 C         138.1888  141.1998  159.3572 C.3     1  UNL1        0.1682
     15 C         139.7880  141.7211  166.0221 C.ar    1  UNL1        0.0193
     16 C         140.3421  142.8704  166.8107 C.ar    1  UNL1        0.0038
     17 C         140.5733  142.7258  168.2858 C.ar    1  UNL1        0.0297
     18 C         140.2503  141.4318  168.9722 C.ar    1  UNL1        0.1492
     19 N         139.6961  140.2824  168.1835 N.ar    1  UNL1       -0.2335
     20 C         139.4650  140.4271  166.7085 C.ar    1  UNL1        0.0996
     21 C         140.4814  141.2871  170.4471 C.1     1  UNL1        0.1198
     22 N         140.7126  141.1424  171.9221 N.1     1  UNL1       -0.1893
     23 C         137.4931  140.8245  156.8037 C.3     1  UNL1        0.1353
     24 C         133.6389  140.6323  155.8774 C.3     1  UNL1        0.0946
     25 C         135.0905  141.0073  155.8320 C.2     1  UNL1        0.2231
     26 O         135.5913  141.9401  154.7694 O.2     1  UNL1       -0.2751
     27 N         136.0415  140.4495  156.8492 N.am    1  UNL1       -0.3011
     28 H         135.7129  139.8373  157.5467 H       1  UNL1        0.1495
@<TRIPOS>BOND
     1    24    25    1
     2    25    26    2
     3    25    27   am
     4    27    23    1
     5     1    23    1
     6     1     2    1
     7     2     3    1
     8     3     4    2
     9     3     5   am
    10     5     6    1
    11     6     7   ar
    12     7     8   ar
    13     8     9   ar
    14     9    15    1
    15    15    16   ar
    16    16    17   ar
    17    17    18   ar
    18    18    21    1
    19    21    22    3
    20    18    19   ar
    21    19    20   ar
    22     9    10   ar
    23    10    11   ar
    24    11    12    1
    25    12    13    1
    26    14    13    1
    27    14     1    1
    28    14     5    1
    29    11     6   ar
    30    20    15   ar
    31    27    28    1
@<TRIPOS>MOLECULE
*****
 28 31 0 0 0
SMALL
GASTEIGER

@<TRIPOS>ATOM
      1 C         140.7712  138.5461  158.0961 C.3     1  UNL1        0.2120
      2 O         139.3322  138.9183  157.8942 O.3     1  UNL1       -0.4344
      3 C         138.7939  139.4152  159.2031 C.2     1  UNL1        0.4089
      4 O         137.3949  139.8933  159.4567 O.2     1  UNL1       -0.2258
      5 N         139.9002  139.3502  160.2139 N.am    1  UNL1       -0.2164
      6 C         139.9527  139.7107  161.6690 C.ar    1  UNL1        0.0910
      7 C         138.7307  140.2478  162.3532 C.ar    1  UNL1        0.0181
      8 C         138.7833  140.6083  163.8082 C.ar    1  UNL1        0.0015
      9 C         140.0578  140.4317  164.5791 C.ar    1  UNL1        0.0046
     10 C         141.2798  139.8946  163.8950 C.ar    1  UNL1        0.0382
     11 C         141.2273  139.5341  162.4399 C.ar    1  UNL1        0.1522
     12 O         142.4494  138.9969  161.7557 O.3     1  UNL1       -0.4723
     13 C         142.3968  138.6364  160.3007 C.3     1  UNL1        0.2293
     14 C         141.1223  138.8130  159.5298 C.3     1  UNL1        0.1682
     15 C         140.1103  140.7922  166.0343 C.ar    1  UNL1        0.0193
     16 C         140.6712  142.1170  166.4590 C.ar    1  UNL1        0.0038
     17 C         140.7237  142.4775  167.9141 C.ar    1  UNL1        0.0297
     18 C         140.2153  141.5132  168.9445 C.ar    1  UNL1        0.1492
     19 N         139.6544  140.1884  168.5197 N.ar    1  UNL1       -0.2335
     20 C         139.6019  139.8279  167.0647 C.ar    1  UNL1        0.0996
     21 C         140.2678  141.8737  170.3995 C.1     1  UNL1        0.1198
     22 N         140.3203  142.2342  171.8546 N.1     1  UNL1       -0.1893
     23 C         141.6967  138.0024  157.0482 C.3     1  UNL1        0.1353
     24 C         143.7154  134.6379  156.4525 C.3     1  UNL1        0.0946
     25 C         143.3568  136.0944  156.4537 C.2     1  UNL1        0.2231
     26 O         144.2999  137.0995  155.8616 O.2     1  UNL1       -0.2751
     27 N         142.0552  136.5460  157.0470 N.am    1  UNL1       -0.3011
     28 H         141.4362  135.8863  157.4356 H       1  UNL1        0.1495
@<TRIPOS>BOND
     1    24    25    1
     2    25    26    2
     3    25    27   am
     4    27    23    1
     5     1    23    1
     6     1     2    1
     7     2     3    1
     8     3     4    2
     9     3     5   am
    10     5     6    1
    11     6     7   ar
    12     7     8   ar
    13     8     9   ar
    14     9    15    1
    15    15    16   ar
    16    16    17   ar
    17    17    18   ar
    18    18    21    1
    19    21    22    3
    20    18    19   ar
    21    19    20   ar
    22     9    10   ar
    23    10    11   ar
    24    11    12    1
    25    12    13    1
    26    14    13    1
    27    14     1    1
    28    14     5    1
    29    11     6   ar
    30    20    15   ar
    31    27    28    1
@<TRIPOS>MOLECULE
*****
 28 31 0 0 0
SMALL
GASTEIGER

@<TRIPOS>ATOM
      1 C         144.1034  141.2235  158.4380 C.3     1  UNL1        0.2120
      2 O         144.0773  139.7242  158.4762 O.3     1  UNL1       -0.4344
      3 C         143.7036  139.3024  159.8663 C.2     1  UNL1        0.4089
      4 O         143.5600  137.8900  160.3505 O.2     1  UNL1       -0.2258
      5 N         143.4988  140.5410  160.6872 N.am    1  UNL1       -0.2164
      6 C         143.1193  140.7411  162.1246 C.ar    1  UNL1        0.0910
      7 C         142.8722  139.5538  163.0073 C.ar    1  UNL1        0.0181
      8 C         142.4927  139.7539  164.4446 C.ar    1  UNL1        0.0015
      9 C         142.3602  141.1413  164.9992 C.ar    1  UNL1        0.0046
     10 C         142.6072  142.3286  164.1164 C.ar    1  UNL1        0.0382
     11 C         142.9868  142.1285  162.6792 C.ar    1  UNL1        0.1522
     12 O         143.2338  143.3158  161.7963 O.3     1  UNL1       -0.4723
     13 C         143.6134  143.1157  160.3590 C.3     1  UNL1        0.2293
     14 C         143.7459  141.7283  159.8045 C.3     1  UNL1        0.1682
     15 C         141.9806  141.3414  166.4366 C.ar    1  UNL1        0.0193
     16 C         142.8805  142.1218  167.3482 C.ar    1  UNL1        0.0038
     17 C         142.5009  142.3219  168.7856 C.ar    1  UNL1        0.0297
     18 C         141.2215  141.7415  169.3112 C.ar    1  UNL1        0.1492
     19 N         140.3216  140.9611  168.3994 N.ar    1  UNL1       -0.2335
     20 C         140.7012  140.7611  166.9622 C.ar    1  UNL1        0.0996
     21 C         140.8419  141.9415  170.7485 C.1     1  UNL1        0.1198
     22 N         140.4623  142.1416  172.1858 N.1     1  UNL1       -0.1893
     23 C         144.4297  142.0695  157.2430 C.3     1  UNL1        0.1353
     24 C         148.1323  142.1273  155.8156 C.3     1  UNL1        0.0946
     25 C         146.7169  141.6994  156.0675 C.2     1  UNL1        0.2231
     26 O         146.1732  140.4733  155.3959 O.2     1  UNL1       -0.2751
     27 N         145.8450  142.4975  156.9911 N.am    1  UNL1       -0.3011
     28 H         146.2018  143.3023  157.4320 H       1  UNL1        0.1495
@<TRIPOS>BOND
     1    24    25    1
     2    25    26    2
     3    25    27   am
     4    27    23    1
     5     1    23    1
     6     1     2    1
     7     2     3    1
     8     3     4    2
     9     3     5   am
    10     5     6    1
    11     6     7   ar
    12     7     8   ar
    13     8     9   ar
    14     9    15    1
    15    15    16   ar
    16    16    17   ar
    17    17    18   ar
    18    18    21    1
    19    21    22    3
    20    18    19   ar
    21    19    20   ar
    22     9    10   ar
    23    10    11   ar
    24    11    12    1
    25    12    13    1
    26    14    13    1
    27    14     1    1
    28    14     5    1
    29    11     6   ar
    30    20    15   ar
    31    27    28    1
@<TRIPOS>MOLECULE
*****
 28 31 0 0 0
SMALL
GASTEIGER

@<TRIPOS>ATOM
      1 C         143.8613  141.5303  157.9507 C.3     1  UNL1        0.2120
      2 O         143.3804  142.9321  157.7192 O.3     1  UNL1       -0.4344
      3 C         142.9075  143.4826  159.0320 C.2     1  UNL1        0.4089
      4 O         142.3448  144.8540  159.2616 O.2     1  UNL1       -0.2258
      5 N         143.0962  142.4210  160.0747 N.am    1  UNL1       -0.2164
      6 C         142.8074  142.3972  161.5465 C.ar    1  UNL1        0.0910
      7 C         142.2179  143.6039  162.2147 C.ar    1  UNL1        0.0181
      8 C         141.9291  143.5800  163.6864 C.ar    1  UNL1        0.0015
      9 C         142.2298  142.3496  164.4899 C.ar    1  UNL1        0.0046
     10 C         142.8192  141.1430  163.8217 C.ar    1  UNL1        0.0382
     11 C         143.1080  141.1668  162.3500 C.ar    1  UNL1        0.1522
     12 O         143.6975  139.9601  161.6817 O.3     1  UNL1       -0.4723
     13 C         143.9863  139.9840  160.2100 C.3     1  UNL1        0.2293
     14 C         143.6856  141.2144  159.4065 C.3     1  UNL1        0.1682
     15 C         141.9409  142.3258  165.9617 C.ar    1  UNL1        0.0193
     16 C         142.9713  141.8061  166.9199 C.ar    1  UNL1        0.0038
     17 C         142.6825  141.7823  168.3917 C.ar    1  UNL1        0.0297
     18 C         141.3633  142.2782  168.9052 C.ar    1  UNL1        0.1492
     19 N         140.3329  142.7980  167.9469 N.ar    1  UNL1       -0.2335
     20 C         140.6217  142.8218  166.4752 C.ar    1  UNL1        0.0996
     21 C         141.0744  142.2545  170.3769 C.1     1  UNL1        0.1198
     22 N         140.7856  142.2307  171.8486 N.1     1  UNL1       -0.1893
     23 C         144.4198  140.6064  156.9092 C.3     1  UNL1        0.1353
     24 C         147.9600  141.6538  155.4533 C.3     1  UNL1        0.0946
     25 C         146.4877  141.6583  155.7399 C.2     1  UNL1        0.2231
     26 O         145.6108  142.7192  155.1436 O.2     1  UNL1       -0.2751
     27 N         145.8921  140.6018  156.6227 N.am    1  UNL1       -0.3011
     28 H         146.4676  139.9055  157.0140 H       1  UNL1        0.1495
@<TRIPOS>BOND
     1    24    25    1
     2    25    26    2
     3    25    27   am
     4    27    23    1
     5     1    23    1
     6     1     2    1
     7     2     3    1
     8     3     4    2
     9     3     5   am
    10     5     6    1
    11     6     7   ar
    12     7     8   ar
    13     8     9   ar
    14     9    15    1
    15    15    16   ar
    16    16    17   ar
    17    17    18   ar
    18    18    21    1
    19    21    22    3
    20    18    19   ar
    21    19    20   ar
    22     9    10   ar
    23    10    11   ar
    24    11    12    1
    25    12    13    1
    26    14    13    1
    27    14     1    1
    28    14     5    1
    29    11     6   ar
    30    20    15   ar
    31    27    28    1
@<TRIPOS>MOLECULE
*****
 28 31 0 0 0
SMALL
GASTEIGER

@<TRIPOS>ATOM
      1 C         140.8543  138.3889  158.3994 C.3     1  UNL1        0.2120
      2 O         142.3527  138.3197  158.4053 O.3     1  UNL1       -0.4344
      3 C         142.8273  138.6666  159.7853 C.2     1  UNL1        0.4089
      4 O         144.2561  138.7204  160.2388 O.2     1  UNL1       -0.2258
      5 N         141.6222  138.9502  160.6323 N.am    1  UNL1       -0.2164
      6 C         141.4777  139.3425  162.0729 C.ar    1  UNL1        0.0910
      7 C         142.6971  139.5141  162.9294 C.ar    1  UNL1        0.0181
      8 C         142.5525  139.9064  164.3699 C.ar    1  UNL1        0.0015
      9 C         141.1886  140.1271  164.9539 C.ar    1  UNL1        0.0046
     10 C         139.9693  139.9556  164.0974 C.ar    1  UNL1        0.0382
     11 C         140.1138  139.5632  162.6569 C.ar    1  UNL1        0.1522
     12 O         138.8944  139.3916  161.8003 O.3     1  UNL1       -0.4723
     13 C         139.0389  138.9993  160.3598 C.3     1  UNL1        0.2293
     14 C         140.4028  138.7786  159.7758 C.3     1  UNL1        0.1682
     15 C         141.0442  140.5195  166.3945 C.ar    1  UNL1        0.0193
     16 C         139.8411  140.0791  167.1747 C.ar    1  UNL1        0.0038
     17 C         139.6966  140.4715  168.6153 C.ar    1  UNL1        0.0297
     18 C         140.7552  141.3042  169.2756 C.ar    1  UNL1        0.1492
     19 N         141.9583  141.7445  168.4954 N.ar    1  UNL1       -0.2335
     20 C         142.1027  141.3522  167.0548 C.ar    1  UNL1        0.0996
     21 C         140.6108  141.6965  170.7162 C.1     1  UNL1        0.1198
     22 N         140.4664  142.0889  172.1567 N.1     1  UNL1       -0.1893
     23 C         139.9637  138.1163  157.2235 C.3     1  UNL1        0.1353
     24 C         141.0799  135.1464  154.8395 C.3     1  UNL1        0.0946
     25 C         141.0438  136.4862  155.5129 C.2     1  UNL1        0.2231
     26 O         142.0517  137.5359  155.1492 O.2     1  UNL1       -0.2751
     27 N         139.9997  136.7766  156.5502 N.am    1  UNL1       -0.3011
     28 H         139.3381  136.0877  156.7889 H       1  UNL1        0.1495
@<TRIPOS>BOND
     1    24    25    1
     2    25    26    2
     3    25    27   am
     4    27    23    1
     5     1    23    1
     6     1     2    1
     7     2     3    1
     8     3     4    2
     9     3     5   am
    10     5     6    1
    11     6     7   ar
    12     7     8   ar
    13     8     9   ar
    14     9    15    1
    15    15    16   ar
    16    16    17   ar
    17    17    18   ar
    18    18    21    1
    19    21    22    3
    20    18    19   ar
    21    19    20   ar
    22     9    10   ar
    23    10    11   ar
    24    11    12    1
    25    12    13    1
    26    14    13    1
    27    14     1    1
    28    14     5    1
    29    11     6   ar
    30    20    15   ar
    31    27    28    1
@<TRIPOS>MOLECULE
*****
 28 31 0 0 0
SMALL
GASTEIGER

@<TRIPOS>ATOM
      1 C         142.5526  139.1910  169.9668 C.3     1  UNL1        0.2120
      2 O         141.3761  139.9088  170.5587 O.3     1  UNL1       -0.4344
      3 C         140.4598  140.3003  169.4374 C.2     1  UNL1        0.4089
      4 O         139.1612  141.0380  169.5767 O.2     1  UNL1       -0.2258
      5 N         141.0702  139.8244  168.1525 N.am    1  UNL1       -0.2164
      6 C         140.6152  139.9268  166.7268 C.ar    1  UNL1        0.0910
      7 C         139.3218  140.6124  166.3997 C.ar    1  UNL1        0.0181
      8 C         138.8668  140.7147  164.9741 C.ar    1  UNL1        0.0015
      9 C         139.7054  140.1316  163.8755 C.ar    1  UNL1        0.0046
     10 C         140.9988  139.4461  164.2026 C.ar    1  UNL1        0.0382
     11 C         141.4537  139.3437  165.6283 C.ar    1  UNL1        0.1522
     12 O         142.7472  138.6581  165.9554 O.3     1  UNL1       -0.4723
     13 C         143.2021  138.5557  167.3811 C.3     1  UNL1        0.2293
     14 C         142.3636  139.1389  168.4796 C.3     1  UNL1        0.1682
     15 C         139.2504  140.2340  162.4498 C.ar    1  UNL1        0.0193
     16 C         137.9053  139.7028  162.0518 C.ar    1  UNL1        0.0038
     17 C         137.4503  139.8052  160.6261 C.ar    1  UNL1        0.0297
     18 C         138.3405  140.4388  159.5984 C.ar    1  UNL1        0.1492
     19 N         139.6857  140.9700  159.9965 N.ar    1  UNL1       -0.2335
     20 C         140.1406  140.8676  161.4222 C.ar    1  UNL1        0.0996
     21 C         137.8856  140.5413  158.1728 C.1     1  UNL1        0.1198
     22 N         137.4307  140.6437  156.7472 N.1     1  UNL1       -0.1893
     23 C         143.7144  138.6248  170.7282 C.3     1  UNL1        0.1353
     24 C         145.0721  135.0668  171.8450 C.3     1  UNL1        0.0946
     25 C         145.0345  136.5289  171.5122 C.2     1  UNL1        0.2231
     26 O         146.2794  137.3573  171.6306 O.2     1  UNL1       -0.2751
     27 N         143.7520  137.1627  171.0610 N.am    1  UNL1       -0.3011
     28 H         142.9349  136.6191  170.9832 H       1  UNL1        0.1495
@<TRIPOS>BOND
     1    24    25    1
     2    25    26    2
     3    25    27   am
     4    27    23    1
     5     1    23    1
     6     1     2    1
     7     2     3    1
     8     3     4    2
     9     3     5   am
    10     5     6    1
    11     6     7   ar
    12     7     8   ar
    13     8     9   ar
    14     9    15    1
    15    15    16   ar
    16    16    17   ar
    17    17    18   ar
    18    18    21    1
    19    21    22    3
    20    18    19   ar
    21    19    20   ar
    22     9    10   ar
    23    10    11   ar
    24    11    12    1
    25    12    13    1
    26    14    13    1
    27    14     1    1
    28    14     5    1
    29    11     6   ar
    30    20    15   ar
    31    27    28    1
