@<TRIPOS>MOLECULE
*****
 36 40 0 0 0
SMALL
GASTEIGER

@<TRIPOS>ATOM
      1 C         138.9597  141.8178  160.4955 C.ar    1  UNL1        0.2204
      2 N         137.8366  142.0080  161.4714 N.ar    1  UNL1       -0.2089
      3 C         137.6175  141.0073  162.5671 C.ar    1  UNL1        0.1402
      4 C         138.5216  139.8164  162.6869 C.ar    1  UNL1        0.1773
      5 C         139.6447  139.6261  161.7110 C.ar    1  UNL1        0.1402
      6 N         139.8638  140.6269  160.6153 N.ar    1  UNL1       -0.2089
      7 C         137.8270  141.3214  157.7622 C.3     1  UNL1        0.0233
      8 C         138.6124  142.5703  158.0331 C.3     1  UNL1        0.0955
      9 C         138.8314  143.5710  156.9374 C.3     1  UNL1        0.1149
     10 N         139.6167  144.8200  157.2084 N.pl3   1  UNL1       -0.2590
     11 C         140.1830  145.0682  158.5750 C.3     1  UNL1        0.1166
     12 C         139.9640  144.0675  159.6706 C.3     1  UNL1        0.1151
     13 N         139.1787  142.8185  159.3997 N.pl3   1  UNL1       -0.2764
     14 C         139.8357  145.8207  156.1126 C.ar    1  UNL1        0.3120
     15 N         140.5603  145.5717  154.8230 N.ar    1  UNL1       -0.0922
     16 N         140.5410  146.8432  154.0275 N.ar    1  UNL1       -0.1018
     17 C         139.8044  147.8781  154.8254 C.ar    1  UNL1        0.3233
     18 O         139.3686  147.2461  156.1141 O.2     1  UNL1       -0.4012
     19 C         139.5487  149.2960  154.4080 C.3     1  UNL1        0.4711
     20 F         139.2930  150.7138  153.9906 F       1  UNL1       -0.1619
     21 F         140.6660  149.2041  153.4115 F       1  UNL1       -0.1619
     22 F         138.4314  149.3878  155.4045 F       1  UNL1       -0.1619
     23 O         138.3026  138.8157  163.7827 O.3     1  UNL1       -0.4674
     24 C         139.4586  138.3563  164.6209 C.3     1  UNL1        0.2344
     25 C         139.7657  139.0456  165.9172 C.ar    1  UNL1        0.0487
     26 C         141.1436  139.5796  166.1747 C.ar    1  UNL1        0.0031
     27 C         141.4507  140.2689  167.4711 C.ar    1  UNL1        0.0192
     28 C         140.3799  140.4243  168.5099 C.ar    1  UNL1        0.0885
     29 C         139.0019  139.8904  168.2524 C.ar    1  UNL1        0.0487
     30 C         138.6948  139.2011  166.9561 C.ar    1  UNL1        0.1411
     31 F         137.3169  138.6672  166.6987 F       1  UNL1       -0.2043
     32 N         140.6870  141.1137  169.8062 N.ar    1  UNL1       -0.1885
     33 C         142.0552  141.4194  170.3398 C.ar    1  UNL1        0.2258
     34 N         141.8937  142.1130  171.6599 N.ar    1  UNL1       -0.1045
     35 N         140.4256  142.2360  171.9424 N.ar    1  UNL1       -0.0222
     36 N         139.6798  141.6183  170.7967 N.ar    1  UNL1       -0.0385
@<TRIPOS>BOND
     1     8     7    1
     2     8     9    1
     3     9    10    1
     4    10    14    1
     5    14    15   ar
     6    15    16   ar
     7    16    17   ar
     8    17    19    1
     9    19    20    1
    10    19    21    1
    11    19    22    1
    12    17    18   ar
    13    10    11    1
    14    11    12    1
    15    12    13    1
    16    13     1    1
    17     1     2   ar
    18     2     3   ar
    19     3     4   ar
    20     4    23    1
    21    23    24    1
    22    24    25    1
    23    25    26   ar
    24    26    27   ar
    25    27    28   ar
    26    28    32    1
    27    32    33   ar
    28    33    34   ar
    29    34    35   ar
    30    35    36   ar
    31    28    29   ar
    32    29    30   ar
    33    30    31    1
    34     4     5   ar
    35     5     6   ar
    36    13     8    1
    37     6     1   ar
    38    18    14   ar
    39    30    25   ar
    40    36    32   ar
@<TRIPOS>MOLECULE
*****
 36 40 0 0 0
SMALL
GASTEIGER

@<TRIPOS>ATOM
      1 C         139.0967  141.6580  160.5040 C.ar    1  UNL1        0.2204
      2 N         140.1453  140.6065  160.7154 N.ar    1  UNL1       -0.2089
      3 C         139.9660  139.5734  161.7880 C.ar    1  UNL1        0.1402
      4 C         138.7380  139.5919  162.6493 C.ar    1  UNL1        0.1773
      5 C         137.6894  140.6434  162.4380 C.ar    1  UNL1        0.1402
      6 N         137.8688  141.6765  161.3653 N.ar    1  UNL1       -0.2089
      7 C         140.4911  144.2404  161.1265 C.3     1  UNL1        0.0233
      8 C         139.9732  143.9822  159.7425 C.3     1  UNL1        0.0955
      9 C         140.1526  145.0153  158.6699 C.3     1  UNL1        0.1149
     10 N         139.6347  144.7571  157.2860 N.pl3   1  UNL1       -0.2590
     11 C         138.9375  143.4660  156.9747 C.3     1  UNL1        0.1166
     12 C         138.7582  142.4330  158.0474 C.3     1  UNL1        0.1151
     13 N         139.2761  142.6911  159.4313 N.pl3   1  UNL1       -0.2764
     14 C         139.8141  145.7902  156.2132 C.ar    1  UNL1        0.3120
     15 N         140.5238  145.5908  154.9069 N.ar    1  UNL1       -0.0922
     16 N         140.4636  146.8815  154.1449 N.ar    1  UNL1       -0.1018
     17 C         139.7165  147.8786  154.9803 C.ar    1  UNL1        0.3233
     18 O         139.3151  147.2041  156.2586 O.2     1  UNL1       -0.4012
     19 C         139.4225  149.3004  154.6036 C.3     1  UNL1        0.4711
     20 F         139.1285  150.7222  154.2268 F       1  UNL1       -0.1619
     21 F         140.3234  149.1707  153.4113 F       1  UNL1       -0.1619
     22 F         138.5217  149.4301  155.7959 F       1  UNL1       -0.1619
     23 O         138.5587  138.5588  163.7220 O.3     1  UNL1       -0.4674
     24 C         139.7192  138.1680  164.5884 C.3     1  UNL1        0.2344
     25 C         139.9685  138.8907  165.8788 C.ar    1  UNL1        0.0487
     26 C         138.8213  139.2225  166.7865 C.ar    1  UNL1        0.0031
     27 C         139.0708  139.9453  168.0770 C.ar    1  UNL1        0.0192
     28 C         140.4674  140.3362  168.4599 C.ar    1  UNL1        0.0885
     29 C         141.6146  140.0044  167.5522 C.ar    1  UNL1        0.0487
     30 C         141.3652  139.2817  166.2618 C.ar    1  UNL1        0.1411
     31 F         142.5124  138.9499  165.3541 F       1  UNL1       -0.2043
     32 N         140.7168  141.0590  169.7504 N.ar    1  UNL1       -0.1885
     33 C         142.0556  141.4771  170.2823 C.ar    1  UNL1        0.2258
     34 N         141.8374  142.1670  171.5962 N.ar    1  UNL1       -0.1045
     35 N         140.3638  142.1754  171.8764 N.ar    1  UNL1       -0.0222
     36 N         139.6712  141.4905  170.7356 N.ar    1  UNL1       -0.0385
@<TRIPOS>BOND
     1     8     7    1
     2     8     9    1
     3     9    10    1
     4    10    14    1
     5    14    15   ar
     6    15    16   ar
     7    16    17   ar
     8    17    19    1
     9    19    20    1
    10    19    21    1
    11    19    22    1
    12    17    18   ar
    13    10    11    1
    14    11    12    1
    15    12    13    1
    16    13     1    1
    17     1     2   ar
    18     2     3   ar
    19     3     4   ar
    20     4    23    1
    21    23    24    1
    22    24    25    1
    23    25    26   ar
    24    26    27   ar
    25    27    28   ar
    26    28    32    1
    27    32    33   ar
    28    33    34   ar
    29    34    35   ar
    30    35    36   ar
    31    28    29   ar
    32    29    30   ar
    33    30    31    1
    34     4     5   ar
    35     5     6   ar
    36    13     8    1
    37     6     1   ar
    38    18    14   ar
    39    30    25   ar
    40    36    32   ar
@<TRIPOS>MOLECULE
*****
 36 40 0 0 0
SMALL
GASTEIGER

@<TRIPOS>ATOM
      1 C         140.3601  144.1779  159.2739 C.ar    1  UNL1        0.2204
      2 N         141.5931  145.0238  159.1545 N.ar    1  UNL1       -0.2089
      3 C         141.8509  145.8004  157.8974 C.ar    1  UNL1        0.1402
      4 C         140.8758  145.7312  156.7597 C.ar    1  UNL1        0.1773
      5 C         139.6429  144.8853  156.8791 C.ar    1  UNL1        0.1402
      6 N         139.3850  144.1086  158.1363 N.ar    1  UNL1       -0.2089
      7 C         139.6616  145.6190  161.8108 C.3     1  UNL1        0.0233
      8 C         139.7530  144.1218  161.7995 C.3     1  UNL1        0.0955
      9 C         139.4952  143.3451  163.0566 C.3     1  UNL1        0.1149
     10 N         139.5866  141.8480  163.0453 N.pl3   1  UNL1       -0.2590
     11 C         139.9358  141.1274  161.7769 C.3     1  UNL1        0.1166
     12 C         140.1936  141.9041  160.5198 C.3     1  UNL1        0.1151
     13 N         140.1022  143.4013  160.5311 N.pl3   1  UNL1       -0.2764
     14 C         139.3287  141.0713  164.3024 C.ar    1  UNL1        0.3120
     15 N         139.6800  141.5053  165.6946 N.ar    1  UNL1       -0.0922
     16 N         139.2427  140.4266  166.6407 N.ar    1  UNL1       -0.1018
     17 C         138.6211  139.3258  165.8332 C.ar    1  UNL1        0.3233
     18 O         138.6743  139.7243  164.3881 O.2     1  UNL1       -0.4012
     19 C         138.0472  138.0505  166.3755 C.3     1  UNL1        0.4711
     20 F         137.4732  136.7752  166.9179 F       1  UNL1       -0.1619
     21 F         138.7072  137.2828  165.2688 F       1  UNL1       -0.1619
     22 F         137.3872  138.8182  167.4823 F       1  UNL1       -0.1619
     23 O         141.1337  146.5078  155.5026 O.3     1  UNL1       -0.4674
     24 C         139.9843  146.9621  154.6525 C.3     1  UNL1        0.2344
     25 C         139.6076  148.4135  154.6142 C.ar    1  UNL1        0.0487
     26 C         139.9222  149.2382  153.4014 C.ar    1  UNL1        0.0031
     27 C         139.5454  150.6897  153.3630 C.ar    1  UNL1        0.0192
     28 C         138.8541  151.3163  154.5374 C.ar    1  UNL1        0.0885
     29 C         138.5395  150.4916  155.7503 C.ar    1  UNL1        0.0487
     30 C         138.9162  149.0402  155.7886 C.ar    1  UNL1        0.1411
     31 F         138.6017  148.2155  157.0014 F       1  UNL1       -0.2043
     32 N         138.4773  152.7677  154.4991 N.ar    1  UNL1       -0.1885
     33 C         137.9372  153.5073  153.3110 C.ar    1  UNL1        0.2258
     34 N         137.7006  154.9311  153.7197 N.ar    1  UNL1       -0.1045
     35 N         138.0945  155.0715  155.1602 N.ar    1  UNL1       -0.0222
     36 N         138.5746  153.7344  155.6419 N.ar    1  UNL1       -0.0385
@<TRIPOS>BOND
     1     8     7    1
     2     8     9    1
     3     9    10    1
     4    10    14    1
     5    14    15   ar
     6    15    16   ar
     7    16    17   ar
     8    17    19    1
     9    19    20    1
    10    19    21    1
    11    19    22    1
    12    17    18   ar
    13    10    11    1
    14    11    12    1
    15    12    13    1
    16    13     1    1
    17     1     2   ar
    18     2     3   ar
    19     3     4   ar
    20     4    23    1
    21    23    24    1
    22    24    25    1
    23    25    26   ar
    24    26    27   ar
    25    27    28   ar
    26    28    32    1
    27    32    33   ar
    28    33    34   ar
    29    34    35   ar
    30    35    36   ar
    31    28    29   ar
    32    29    30   ar
    33    30    31    1
    34     4     5   ar
    35     5     6   ar
    36    13     8    1
    37     6     1   ar
    38    18    14   ar
    39    30    25   ar
    40    36    32   ar
@<TRIPOS>MOLECULE
*****
 36 40 0 0 0
SMALL
GASTEIGER

@<TRIPOS>ATOM
      1 C         141.2180  141.9255  160.6107 C.ar    1  UNL1        0.2204
      2 N         140.2291  140.8538  160.9623 N.ar    1  UNL1       -0.2089
      3 C         140.6050  139.7767  161.9361 C.ar    1  UNL1        0.1402
      4 C         141.9699  139.7712  162.5585 C.ar    1  UNL1        0.1773
      5 C         142.9587  140.8429  162.2070 C.ar    1  UNL1        0.1402
      6 N         142.5828  141.9201  161.2330 N.ar    1  UNL1       -0.2089
      7 C         140.7769  141.2482  157.7216 C.3     1  UNL1        0.0233
      8 C         140.6215  142.6640  158.1922 C.3     1  UNL1        0.0955
      9 C         140.2456  143.7411  157.2184 C.3     1  UNL1        0.1149
     10 N         140.0902  145.1568  157.6890 N.pl3   1  UNL1       -0.2590
     11 C         140.3107  145.4955  159.1335 C.3     1  UNL1        0.1166
     12 C         140.6867  144.4183  160.1074 C.3     1  UNL1        0.1151
     13 N         140.8421  143.0026  159.6367 N.pl3   1  UNL1       -0.2764
     14 C         139.7142  146.2340  156.7150 C.ar    1  UNL1        0.3120
     15 N         139.7037  146.1068  155.2205 N.ar    1  UNL1       -0.0922
     16 N         139.2658  147.4216  154.6465 N.ar    1  UNL1       -0.1018
     17 C         139.0056  148.3614  155.7863 C.ar    1  UNL1        0.3233
     18 O         139.2828  147.6274  157.0647 O.2     1  UNL1       -0.4012
     19 C         138.5485  149.7852  155.6684 C.3     1  UNL1        0.4711
     20 F         138.0915  151.2089  155.5504 F       1  UNL1       -0.1619
     21 F         137.7730  149.6419  156.9443 F       1  UNL1       -0.1619
     22 F         139.3241  149.9285  154.3925 F       1  UNL1       -0.1619
     23 O         142.3458  138.6941  163.5324 O.3     1  UNL1       -0.4674
     24 C         141.3672  138.2571  164.5820 C.3     1  UNL1        0.2344
     25 C         141.3109  138.9724  165.8992 C.ar    1  UNL1        0.0487
     26 C         140.0308  139.6093  166.3527 C.ar    1  UNL1        0.0031
     27 C         139.9745  140.3247  167.6700 C.ar    1  UNL1        0.0192
     28 C         141.1983  140.4030  168.5337 C.ar    1  UNL1        0.0885
     29 C         142.4784  139.7661  168.0803 C.ar    1  UNL1        0.0487
     30 C         142.5347  139.0508  166.7630 C.ar    1  UNL1        0.1411
     31 F         143.8149  138.4139  166.3096 F       1  UNL1       -0.2043
     32 N         141.1420  141.1183  169.8510 N.ar    1  UNL1       -0.1885
     33 C         142.3209  141.5963  170.6459 C.ar    1  UNL1        0.2258
     34 N         141.8045  142.2546  171.8908 N.ar    1  UNL1       -0.1045
     35 N         140.3063  142.1835  171.8654 N.ar    1  UNL1       -0.0222
     36 N         139.8969  141.4812  170.6047 N.ar    1  UNL1       -0.0385
@<TRIPOS>BOND
     1     8     7    1
     2     8     9    1
     3     9    10    1
     4    10    14    1
     5    14    15   ar
     6    15    16   ar
     7    16    17   ar
     8    17    19    1
     9    19    20    1
    10    19    21    1
    11    19    22    1
    12    17    18   ar
    13    10    11    1
    14    11    12    1
    15    12    13    1
    16    13     1    1
    17     1     2   ar
    18     2     3   ar
    19     3     4   ar
    20     4    23    1
    21    23    24    1
    22    24    25    1
    23    25    26   ar
    24    26    27   ar
    25    27    28   ar
    26    28    32    1
    27    32    33   ar
    28    33    34   ar
    29    34    35   ar
    30    35    36   ar
    31    28    29   ar
    32    29    30   ar
    33    30    31    1
    34     4     5   ar
    35     5     6   ar
    36    13     8    1
    37     6     1   ar
    38    18    14   ar
    39    30    25   ar
    40    36    32   ar
@<TRIPOS>MOLECULE
*****
 36 40 0 0 0
SMALL
GASTEIGER

@<TRIPOS>ATOM
      1 C         142.7999  139.7454  160.3438 C.ar    1  UNL1        0.2204
      2 N         143.6583  139.0327  161.3463 N.ar    1  UNL1       -0.2089
      3 C         143.0249  138.3191  162.5037 C.ar    1  UNL1        0.1402
      4 C         141.5328  138.3184  162.6586 C.ar    1  UNL1        0.1773
      5 C         140.6744  139.0311  161.6561 C.ar    1  UNL1        0.1402
      6 N         141.3079  139.7447  160.4987 N.ar    1  UNL1       -0.2089
      7 C         143.9304  142.4992  160.7162 C.3     1  UNL1        0.0233
      8 C         143.9987  141.8358  159.3726 C.3     1  UNL1        0.0955
      9 C         144.6322  142.5492  158.2152 C.3     1  UNL1        0.1149
     10 N         144.7004  141.8858  156.8716 N.pl3   1  UNL1       -0.2590
     11 C         144.1351  140.5090  156.6854 C.3     1  UNL1        0.1166
     12 C         143.5016  139.7955  157.8428 C.3     1  UNL1        0.1151
     13 N         143.4334  140.4589  159.1864 N.pl3   1  UNL1       -0.2764
     14 C         145.3340  142.5994  155.7141 C.ar    1  UNL1        0.3120
     15 N         144.6067  143.3139  154.6139 N.ar    1  UNL1       -0.0922
     16 N         145.6293  143.8798  153.6736 N.ar    1  UNL1       -0.1018
     17 C         146.9885  143.5149  154.1927 C.ar    1  UNL1        0.3233
     18 O         146.8060  142.7236  155.4538 O.2     1  UNL1       -0.4012
     19 C         148.3000  143.8777  153.5615 C.3     1  UNL1        0.4711
     20 F         149.6115  144.2405  152.9302 F       1  UNL1       -0.1619
     21 F         147.7168  145.1797  153.0981 F       1  UNL1       -0.1619
     22 F         148.8832  142.5757  154.0248 F       1  UNL1       -0.1619
     23 O         140.8994  137.6049  163.8160 O.3     1  UNL1       -0.4674
     24 C         139.7597  138.2402  164.5559 C.3     1  UNL1        0.2344
     25 C         140.0105  138.9495  165.8536 C.ar    1  UNL1        0.0487
     26 C         141.3980  139.3955  166.2086 C.ar    1  UNL1        0.0031
     27 C         141.6488  140.1048  167.5063 C.ar    1  UNL1        0.0192
     28 C         140.5121  140.3681  168.4490 C.ar    1  UNL1        0.0885
     29 C         139.1246  139.9222  168.0940 C.ar    1  UNL1        0.0487
     30 C         138.8738  139.2129  166.7963 C.ar    1  UNL1        0.1411
     31 F         137.4864  138.7669  166.4413 F       1  UNL1       -0.2043
     32 N         140.7629  141.0774  169.7466 N.ar    1  UNL1       -0.1885
     33 C         142.1046  141.3314  170.3677 C.ar    1  UNL1        0.2258
     34 N         141.8870  142.0683  171.6560 N.ar    1  UNL1       -0.1045
     35 N         140.4109  142.2697  171.8312 N.ar    1  UNL1       -0.0222
     36 N         139.7162  141.6573  170.6511 N.ar    1  UNL1       -0.0385
@<TRIPOS>BOND
     1     8     7    1
     2     8     9    1
     3     9    10    1
     4    10    14    1
     5    14    15   ar
     6    15    16   ar
     7    16    17   ar
     8    17    19    1
     9    19    20    1
    10    19    21    1
    11    19    22    1
    12    17    18   ar
    13    10    11    1
    14    11    12    1
    15    12    13    1
    16    13     1    1
    17     1     2   ar
    18     2     3   ar
    19     3     4   ar
    20     4    23    1
    21    23    24    1
    22    24    25    1
    23    25    26   ar
    24    26    27   ar
    25    27    28   ar
    26    28    32    1
    27    32    33   ar
    28    33    34   ar
    29    34    35   ar
    30    35    36   ar
    31    28    29   ar
    32    29    30   ar
    33    30    31    1
    34     4     5   ar
    35     5     6   ar
    36    13     8    1
    37     6     1   ar
    38    18    14   ar
    39    30    25   ar
    40    36    32   ar
@<TRIPOS>MOLECULE
*****
 36 40 0 0 0
SMALL
GASTEIGER

@<TRIPOS>ATOM
      1 C         141.1592  141.6685  160.5248 C.ar    1  UNL1        0.2204
      2 N         140.0690  141.0044  161.3124 N.ar    1  UNL1       -0.2089
      3 C         140.4008  139.8914  162.2617 C.ar    1  UNL1        0.1402
      4 C         141.8230  139.4425  162.4233 C.ar    1  UNL1        0.1773
      5 C         142.9132  140.1066  161.6357 C.ar    1  UNL1        0.1402
      6 N         142.5813  141.2196  160.6864 N.ar    1  UNL1       -0.2089
      7 C         141.4248  144.5231  161.4085 C.3     1  UNL1        0.0233
      8 C         140.9601  144.2088  160.0174 C.3     1  UNL1        0.0955
      9 C         140.6282  145.3218  159.0682 C.3     1  UNL1        0.1149
     10 N         140.1635  145.0075  157.6770 N.pl3   1  UNL1       -0.2590
     11 C         140.0306  143.5802  157.2352 C.3     1  UNL1        0.1166
     12 C         140.3626  142.4673  158.1844 C.3     1  UNL1        0.1151
     13 N         140.8273  142.7816  159.5755 N.pl3   1  UNL1       -0.2764
     14 C         139.8315  146.1205  156.7278 C.ar    1  UNL1        0.3120
     15 N         140.0442  146.1059  155.2430 N.ar    1  UNL1       -0.0922
     16 N         139.5728  147.4199  154.6943 N.ar    1  UNL1       -0.1018
     17 C         139.0688  148.2467  155.8399 C.ar    1  UNL1        0.3233
     18 O         139.2287  147.4436  157.0967 O.2     1  UNL1       -0.4012
     19 C         138.5040  149.6331  155.7454 C.3     1  UNL1        0.4711
     20 F         137.9393  151.0195  155.6509 F       1  UNL1       -0.1619
     21 F         138.9343  149.7105  154.3105 F       1  UNL1       -0.1619
     22 F         138.0737  149.5556  157.1802 F       1  UNL1       -0.1619
     23 O         142.1548  138.3295  163.3725 O.3     1  UNL1       -0.4674
     24 C         141.2074  137.9829  164.4826 C.3     1  UNL1        0.2344
     25 C         140.9788  138.9528  165.6037 C.ar    1  UNL1        0.0487
     26 C         142.1477  139.5969  166.2883 C.ar    1  UNL1        0.0031
     27 C         141.9191  140.5669  167.4095 C.ar    1  UNL1        0.0192
     28 C         140.5215  140.8926  167.8461 C.ar    1  UNL1        0.0885
     29 C         139.3525  140.2484  167.1616 C.ar    1  UNL1        0.0487
     30 C         139.5811  139.2785  166.0404 C.ar    1  UNL1        0.1411
     31 F         138.4122  138.6344  165.3559 F       1  UNL1       -0.2043
     32 N         140.2929  141.8624  168.9673 N.ar    1  UNL1       -0.1885
     33 C         139.9052  141.5099  170.3729 C.ar    1  UNL1        0.2258
     34 N         139.7845  142.7847  171.1541 N.ar    1  UNL1       -0.1045
     35 N         140.0977  143.9252  170.2314 N.ar    1  UNL1       -0.0222
     36 N         140.4119  143.3552  168.8799 N.ar    1  UNL1       -0.0385
@<TRIPOS>BOND
     1     8     7    1
     2     8     9    1
     3     9    10    1
     4    10    14    1
     5    14    15   ar
     6    15    16   ar
     7    16    17   ar
     8    17    19    1
     9    19    20    1
    10    19    21    1
    11    19    22    1
    12    17    18   ar
    13    10    11    1
    14    11    12    1
    15    12    13    1
    16    13     1    1
    17     1     2   ar
    18     2     3   ar
    19     3     4   ar
    20     4    23    1
    21    23    24    1
    22    24    25    1
    23    25    26   ar
    24    26    27   ar
    25    27    28   ar
    26    28    32    1
    27    32    33   ar
    28    33    34   ar
    29    34    35   ar
    30    35    36   ar
    31    28    29   ar
    32    29    30   ar
    33    30    31    1
    34     4     5   ar
    35     5     6   ar
    36    13     8    1
    37     6     1   ar
    38    18    14   ar
    39    30    25   ar
    40    36    32   ar
@<TRIPOS>MOLECULE
*****
 36 40 0 0 0
SMALL
GASTEIGER

@<TRIPOS>ATOM
      1 C         142.7146  140.8150  159.7379 C.ar    1  UNL1        0.2204
      2 N         141.3943  141.4631  160.0324 N.ar    1  UNL1       -0.2089
      3 C         141.3483  142.7779  160.7530 C.ar    1  UNL1        0.1402
      4 C         142.6227  143.4445  161.1792 C.ar    1  UNL1        0.1773
      5 C         143.9430  142.7964  160.8848 C.ar    1  UNL1        0.1402
      6 N         143.9889  141.4816  160.1641 N.ar    1  UNL1       -0.2089
      7 C         142.6961  138.2501  161.2938 C.3     1  UNL1        0.0233
      8 C         142.7512  138.2178  159.7952 C.3     1  UNL1        0.0955
      9 C         142.7972  136.9031  159.0745 C.3     1  UNL1        0.1149
     10 N         142.8523  136.8708  157.5759 N.pl3   1  UNL1       -0.2590
     11 C         142.8616  138.1533  156.7979 C.3     1  UNL1        0.1166
     12 C         142.8157  139.4679  157.5186 C.3     1  UNL1        0.1151
     13 N         142.7605  139.5002  159.0172 N.pl3   1  UNL1       -0.2764
     14 C         142.8983  135.5561  156.8552 C.ar    1  UNL1        0.3120
     15 N         141.8573  135.0311  155.9114 N.ar    1  UNL1       -0.0922
     16 N         142.3089  133.6860  155.4247 N.ar    1  UNL1       -0.1018
     17 C         143.6291  133.3797  156.0678 C.ar    1  UNL1        0.3233
     18 O         143.9933  134.5354  156.9518 O.2     1  UNL1       -0.4012
     19 C         144.4422  132.1360  155.8627 C.3     1  UNL1        0.4711
     20 F         145.2553  130.8923  155.6577 F       1  UNL1       -0.1619
     21 F         145.1754  132.4042  157.1435 F       1  UNL1       -0.1619
     22 F         143.7090  131.8678  154.5819 F       1  UNL1       -0.1619
     23 O         142.5767  144.7592  161.8999 O.3     1  UNL1       -0.4674
     24 C         141.7737  144.8965  163.1593 C.3     1  UNL1        0.2344
     25 C         142.0001  143.9493  164.3002 C.ar    1  UNL1        0.0487
     26 C         140.8292  143.3646  165.0332 C.ar    1  UNL1        0.0031
     27 C         141.0557  142.4174  166.1741 C.ar    1  UNL1        0.0192
     28 C         142.4529  142.0549  166.5819 C.ar    1  UNL1        0.0885
     29 C         143.6237  142.6396  165.8489 C.ar    1  UNL1        0.0487
     30 C         143.3973  143.5868  164.7080 C.ar    1  UNL1        0.1411
     31 F         144.5681  144.1715  163.9750 F       1  UNL1       -0.2043
     32 N         142.6793  141.1077  167.7227 N.ar    1  UNL1       -0.1885
     33 C         142.5885  139.6118  167.6580 C.ar    1  UNL1        0.2258
     34 N         142.8893  139.0696  169.0239 N.ar    1  UNL1       -0.1045
     35 N         143.1661  140.2304  169.9328 N.ar    1  UNL1       -0.0222
     36 N         143.0363  141.4900  169.1286 N.ar    1  UNL1       -0.0385
@<TRIPOS>BOND
     1     8     7    1
     2     8     9    1
     3     9    10    1
     4    10    14    1
     5    14    15   ar
     6    15    16   ar
     7    16    17   ar
     8    17    19    1
     9    19    20    1
    10    19    21    1
    11    19    22    1
    12    17    18   ar
    13    10    11    1
    14    11    12    1
    15    12    13    1
    16    13     1    1
    17     1     2   ar
    18     2     3   ar
    19     3     4   ar
    20     4    23    1
    21    23    24    1
    22    24    25    1
    23    25    26   ar
    24    26    27   ar
    25    27    28   ar
    26    28    32    1
    27    32    33   ar
    28    33    34   ar
    29    34    35   ar
    30    35    36   ar
    31    28    29   ar
    32    29    30   ar
    33    30    31    1
    34     4     5   ar
    35     5     6   ar
    36    13     8    1
    37     6     1   ar
    38    18    14   ar
    39    30    25   ar
    40    36    32   ar
@<TRIPOS>MOLECULE
*****
 36 40 0 0 0
SMALL
GASTEIGER

@<TRIPOS>ATOM
      1 C         142.9551  140.8364  159.9050 C.ar    1  UNL1        0.2204
      2 N         144.2626  141.4604  160.2936 N.ar    1  UNL1       -0.2089
      3 C         144.2804  142.7636  161.0361 C.ar    1  UNL1        0.1402
      4 C         142.9907  143.4429  161.3899 C.ar    1  UNL1        0.1773
      5 C         141.6831  142.8189  161.0013 C.ar    1  UNL1        0.1402
      6 N         141.6654  141.5156  160.2588 N.ar    1  UNL1       -0.2089
      7 C         142.9375  138.2470  161.4200 C.3     1  UNL1        0.0233
      8 C         142.9285  138.2385  159.9200 C.3     1  UNL1        0.0955
      9 C         142.9108  136.9353  159.1776 C.3     1  UNL1        0.1149
     10 N         142.9018  136.9267  157.6776 N.pl3   1  UNL1       -0.2590
     11 C         142.9106  138.2213  156.9201 C.3     1  UNL1        0.1166
     12 C         142.9284  139.5245  157.6626 C.3     1  UNL1        0.1151
     13 N         142.9373  139.5331  159.1625 N.pl3   1  UNL1       -0.2764
     14 C         142.8840  135.6234  156.9351 C.ar    1  UNL1        0.3120
     15 N         141.7861  135.1350  156.0374 N.ar    1  UNL1       -0.0922
     16 N         142.1846  133.7895  155.5075 N.ar    1  UNL1       -0.1018
     17 C         143.5289  133.4463  156.0778 C.ar    1  UNL1        0.3233
     18 O         143.9611  134.5797  156.9601 O.2     1  UNL1       -0.4012
     19 C         144.3047  132.1902  155.8124 C.3     1  UNL1        0.4711
     20 F         145.0804  130.9341  155.5470 F       1  UNL1       -0.1619
     21 F         143.6359  132.0595  154.4762 F       1  UNL1       -0.1619
     22 F         144.9735  132.3209  157.1487 F       1  UNL1       -0.1619
     23 O         143.0085  144.7461  162.1323 O.3     1  UNL1       -0.4674
     24 C         143.1927  144.7588  163.6209 C.3     1  UNL1        0.2344
     25 C         142.4124  143.8097  164.4813 C.ar    1  UNL1        0.0487
     26 C         140.9196  143.9297  164.5674 C.ar    1  UNL1        0.0031
     27 C         140.1393  142.9805  165.4278 C.ar    1  UNL1        0.0192
     28 C         140.8517  141.9115  166.2022 C.ar    1  UNL1        0.0885
     29 C         142.3444  141.7916  166.1161 C.ar    1  UNL1        0.0487
     30 C         143.1248  142.7407  165.2557 C.ar    1  UNL1        0.1411
     31 F         144.6175  142.6207  165.1697 F       1  UNL1       -0.2043
     32 N         140.0714  140.9625  167.0626 N.ar    1  UNL1       -0.1885
     33 C         139.1365  139.8955  166.5750 C.ar    1  UNL1        0.2258
     34 N         138.5763  139.1873  167.7727 N.ar    1  UNL1       -0.1045
     35 N         139.1648  139.8165  169.0006 N.ar    1  UNL1       -0.0222
     36 N         140.0889  140.9136  168.5617 N.ar    1  UNL1       -0.0385
@<TRIPOS>BOND
     1     8     7    1
     2     8     9    1
     3     9    10    1
     4    10    14    1
     5    14    15   ar
     6    15    16   ar
     7    16    17   ar
     8    17    19    1
     9    19    20    1
    10    19    21    1
    11    19    22    1
    12    17    18   ar
    13    10    11    1
    14    11    12    1
    15    12    13    1
    16    13     1    1
    17     1     2   ar
    18     2     3   ar
    19     3     4   ar
    20     4    23    1
    21    23    24    1
    22    24    25    1
    23    25    26   ar
    24    26    27   ar
    25    27    28   ar
    26    28    32    1
    27    32    33   ar
    28    33    34   ar
    29    34    35   ar
    30    35    36   ar
    31    28    29   ar
    32    29    30   ar
    33    30    31    1
    34     4     5   ar
    35     5     6   ar
    36    13     8    1
    37     6     1   ar
    38    18    14   ar
    39    30    25   ar
    40    36    32   ar
@<TRIPOS>MOLECULE
*****
 36 40 0 0 0
SMALL
GASTEIGER

@<TRIPOS>ATOM
      1 C         140.7148  138.5316  160.9455 C.ar    1  UNL1        0.2204
      2 N         139.6216  138.6394  159.9242 N.ar    1  UNL1       -0.2089
      3 C         139.9228  138.3983  158.4747 C.ar    1  UNL1        0.1402
      4 C         141.3175  138.0494  158.0465 C.ar    1  UNL1        0.1773
      5 C         142.4108  137.9416  159.0678 C.ar    1  UNL1        0.1402
      6 N         142.1094  138.1827  160.5173 N.ar    1  UNL1       -0.2089
      7 C         141.1630  141.2471  162.1393 C.3     1  UNL1        0.0233
      8 C         140.6376  140.1304  162.9919 C.3     1  UNL1        0.0955
      9 C         140.3362  140.3715  164.4414 C.3     1  UNL1        0.1149
     10 N         139.8108  139.2548  165.2940 N.pl3   1  UNL1       -0.2590
     11 C         139.5867  137.8971  164.6971 C.3     1  UNL1        0.1166
     12 C         139.8881  137.6560  163.2477 C.3     1  UNL1        0.1151
     13 N         140.4135  138.7727  162.3951 N.pl3   1  UNL1       -0.2764
     14 C         139.5094  139.4959  166.7436 C.ar    1  UNL1        0.3120
     15 N         138.2838  139.0383  167.4773 N.ar    1  UNL1       -0.0922
     16 N         138.3977  139.4966  168.9010 N.ar    1  UNL1       -0.1018
     17 C         139.6938  140.2374  169.0473 C.ar    1  UNL1        0.3233
     18 O         140.3809  140.2369  167.7139 O.2     1  UNL1       -0.4012
     19 C         140.2119  140.8678  170.3059 C.3     1  UNL1        0.4711
     20 F         140.7299  141.4983  171.5645 F       1  UNL1       -0.1619
     21 F         141.2524  139.7930  170.4160 F       1  UNL1       -0.1619
     22 F         139.1714  141.9426  170.1957 F       1  UNL1       -0.1619
     23 O         141.6188  137.8083  156.5970 O.3     1  UNL1       -0.4674
     24 C         142.7989  136.9692  156.2057 C.3     1  UNL1        0.2344
     25 C         142.6771  135.4746  156.1685 C.ar    1  UNL1        0.0487
     26 C         143.6629  134.6230  156.9121 C.ar    1  UNL1        0.0031
     27 C         143.5411  133.1284  156.8748 C.ar    1  UNL1        0.0192
     28 C         142.4335  132.4854  156.0939 C.ar    1  UNL1        0.0885
     29 C         141.4477  133.3370  155.3503 C.ar    1  UNL1        0.0487
     30 C         141.5695  134.8316  155.3875 C.ar    1  UNL1        0.1411
     31 F         140.5838  135.6832  154.6439 F       1  UNL1       -0.2043
     32 N         142.3117  130.9909  156.0566 N.ar    1  UNL1       -0.1885
     33 C         143.1287  130.0194  156.8561 C.ar    1  UNL1        0.2258
     34 N         142.6735  128.6335  156.5070 N.ar    1  UNL1       -0.1045
     35 N         141.5752  128.7482  155.4917 N.ar    1  UNL1       -0.0222
     36 N         141.3517  130.2052  155.2134 N.ar    1  UNL1       -0.0385
@<TRIPOS>BOND
     1     8     7    1
     2     8     9    1
     3     9    10    1
     4    10    14    1
     5    14    15   ar
     6    15    16   ar
     7    16    17   ar
     8    17    19    1
     9    19    20    1
    10    19    21    1
    11    19    22    1
    12    17    18   ar
    13    10    11    1
    14    11    12    1
    15    12    13    1
    16    13     1    1
    17     1     2   ar
    18     2     3   ar
    19     3     4   ar
    20     4    23    1
    21    23    24    1
    22    24    25    1
    23    25    26   ar
    24    26    27   ar
    25    27    28   ar
    26    28    32    1
    27    32    33   ar
    28    33    34   ar
    29    34    35   ar
    30    35    36   ar
    31    28    29   ar
    32    29    30   ar
    33    30    31    1
    34     4     5   ar
    35     5     6   ar
    36    13     8    1
    37     6     1   ar
    38    18    14   ar
    39    30    25   ar
    40    36    32   ar
