@<TRIPOS>MOLECULE
*****
 24 28 0 0 0
SMALL
GASTEIGER

@<TRIPOS>ATOM
      1 O         139.9599  137.2586  162.3568 O.2     1  UNL1       -0.2636
      2 C         140.8972  138.3093  162.8743 C.ar    1  UNL1        0.2955
      3 C         142.0790  138.7309  162.0523 C.ar    1  UNL1        0.2051
      4 N         142.5726  138.2922  160.7055 N.ar    1  UNL1       -0.2206
      5 C         143.8148  139.0717  160.3907 C.ar    1  UNL1        0.1197
      6 C         144.0889  139.9922  161.5429 C.ar    1  UNL1        0.1023
      7 N         143.0161  139.7815  162.5698 N.ar    1  UNL1       -0.2835
      8 C         142.7715  140.4107  163.9093 C.ar    1  UNL1        0.0836
      9 C         143.7086  141.4614  164.4269 C.ar    1  UNL1        0.0486
     10 C         143.4640  142.0905  165.7664 C.ar    1  UNL1        0.1416
     11 F         144.4012  143.1412  166.2839 F       1  UNL1       -0.2041
     12 C         142.2822  141.6690  166.5884 C.ar    1  UNL1        0.0291
     13 C         141.3451  140.6184  166.0709 C.ar    1  UNL1        0.0210
     14 C         141.5897  139.9892  164.7313 C.ar    1  UNL1        0.0788
     15 N         140.6526  138.9385  164.2138 N.ar    1  UNL1       -0.2935
     16 C         142.0376  142.2982  167.9279 C.ar    1  UNL1        0.0053
     17 C         140.7098  142.9273  168.2298 C.ar    1  UNL1        0.0208
     18 C         140.4651  143.5565  169.5693 C.ar    1  UNL1        0.0989
     19 N         141.5483  143.5566  170.6069 N.ar    1  UNL1       -0.2423
     20 C         142.8761  142.9275  170.3051 C.ar    1  UNL1        0.0989
     21 C         143.1207  142.2983  168.9655 C.ar    1  UNL1        0.0208
     22 C         139.4707  138.5170  165.0359 C.3     1  UNL1        0.0886
     23 C         138.2929  138.8711  165.8944 C.3     1  UNL1        0.0246
     24 C         138.6017  137.4328  165.6010 C.3     1  UNL1        0.0246
@<TRIPOS>BOND
     1     1     2    2
     2     2     3   ar
     3     3     4   ar
     4     4     5   ar
     5     5     6   ar
     6     6     7   ar
     7     7     8   ar
     8     8     9   ar
     9     9    10   ar
    10    10    11    1
    11    10    12   ar
    12    12    16    1
    13    16    17   ar
    14    17    18   ar
    15    18    19   ar
    16    19    20   ar
    17    20    21   ar
    18    12    13   ar
    19    13    14   ar
    20    14    15   ar
    21    15    22    1
    22    22    23    1
    23    23    24    1
    24    15     2   ar
    25    24    22    1
    26     7     3   ar
    27    14     8   ar
    28    21    16   ar
@<TRIPOS>MOLECULE
*****
 24 28 0 0 0
SMALL
GASTEIGER

@<TRIPOS>ATOM
      1 O         142.8322  140.9779  161.4253 O.2     1  UNL1       -0.2636
      2 C         141.8580  140.5245  162.4719 C.ar    1  UNL1        0.2955
      3 C         140.7464  139.5863  162.1058 C.ar    1  UNL1        0.2051
      4 N         140.3616  138.9449  160.8056 N.ar    1  UNL1       -0.2206
      5 C         139.1496  138.0952  161.0487 C.ar    1  UNL1        0.1197
      6 C         138.7853  138.2115  162.4991 C.ar    1  UNL1        0.1023
      7 N         139.7722  139.1330  163.1525 N.ar    1  UNL1       -0.2835
      8 C         139.9096  139.6180  164.5652 C.ar    1  UNL1        0.0836
      9 C         138.9354  139.1647  165.6119 C.ar    1  UNL1        0.0486
     10 C         139.0728  139.6496  167.0247 C.ar    1  UNL1        0.1416
     11 F         138.0986  139.1963  168.0713 F       1  UNL1       -0.2041
     12 C         140.1844  140.5879  167.3908 C.ar    1  UNL1        0.0291
     13 C         141.1586  141.0411  166.3442 C.ar    1  UNL1        0.0210
     14 C         141.0212  140.5562  164.9313 C.ar    1  UNL1        0.0788
     15 N         141.9953  141.0095  163.8847 N.ar    1  UNL1       -0.2935
     16 C         140.3218  141.0728  168.8036 C.ar    1  UNL1        0.0053
     17 C         140.7000  140.1130  169.8925 C.ar    1  UNL1        0.0208
     18 C         140.8374  140.5978  171.3053 C.ar    1  UNL1        0.0989
     19 N         140.5966  142.0425  171.6292 N.ar    1  UNL1       -0.2423
     20 C         140.2183  143.0023  170.5403 C.ar    1  UNL1        0.0989
     21 C         140.0810  142.5174  169.1275 C.ar    1  UNL1        0.0208
     22 C         143.1070  141.9478  164.2509 C.3     1  UNL1        0.0886
     23 C         143.5833  143.3310  164.5820 C.3     1  UNL1        0.0246
     24 C         144.5560  142.1896  164.5539 C.3     1  UNL1        0.0246
@<TRIPOS>BOND
     1     1     2    2
     2     2     3   ar
     3     3     4   ar
     4     4     5   ar
     5     5     6   ar
     6     6     7   ar
     7     7     8   ar
     8     8     9   ar
     9     9    10   ar
    10    10    11    1
    11    10    12   ar
    12    12    16    1
    13    16    17   ar
    14    17    18   ar
    15    18    19   ar
    16    19    20   ar
    17    20    21   ar
    18    12    13   ar
    19    13    14   ar
    20    14    15   ar
    21    15    22    1
    22    22    23    1
    23    23    24    1
    24    15     2   ar
    25    24    22    1
    26     7     3   ar
    27    14     8   ar
    28    21    16   ar
@<TRIPOS>MOLECULE
*****
 24 28 0 0 0
SMALL
GASTEIGER

@<TRIPOS>ATOM
      1 O         143.6932  143.0822  160.8101 O.2     1  UNL1       -0.2636
      2 C         143.5230  142.1312  161.9576 C.ar    1  UNL1        0.2955
      3 C         143.6582  140.6542  161.7340 C.ar    1  UNL1        0.2051
      4 N         143.9527  139.8481  160.5038 N.ar    1  UNL1       -0.2206
      5 C         143.9646  138.3990  160.8910 C.ar    1  UNL1        0.1197
      6 C         143.6774  138.3094  162.3605 C.ar    1  UNL1        0.1023
      7 N         143.4881  139.7032  162.8816 N.ar    1  UNL1       -0.2835
      8 C         143.1827  140.2294  164.2526 C.ar    1  UNL1        0.0836
      9 C         143.0125  139.2785  165.4002 C.ar    1  UNL1        0.0486
     10 C         142.7072  139.8046  166.7713 C.ar    1  UNL1        0.1416
     11 F         142.5370  138.8536  167.9188 F       1  UNL1       -0.2041
     12 C         142.5720  141.2817  166.9948 C.ar    1  UNL1        0.0291
     13 C         142.7421  142.2325  165.8474 C.ar    1  UNL1        0.0210
     14 C         143.0475  141.7064  164.4762 C.ar    1  UNL1        0.0788
     15 N         143.2177  142.6573  163.3288 N.ar    1  UNL1       -0.2935
     16 C         142.2666  141.8078  168.3660 C.ar    1  UNL1        0.0053
     17 C         143.3737  142.3318  169.2319 C.ar    1  UNL1        0.0208
     18 C         143.0684  142.8579  170.6031 C.ar    1  UNL1        0.0989
     19 N         141.6560  142.8599  171.1083 N.ar    1  UNL1       -0.2423
     20 C         140.5489  142.3359  170.2424 C.ar    1  UNL1        0.0989
     21 C         140.8543  141.8098  168.8712 C.ar    1  UNL1        0.0208
     22 C         143.0825  144.1345  163.5524 C.3     1  UNL1        0.0886
     23 C         143.6929  145.4532  163.9238 C.3     1  UNL1        0.0246
     24 C         142.2379  145.3740  163.5682 C.3     1  UNL1        0.0246
@<TRIPOS>BOND
     1     1     2    2
     2     2     3   ar
     3     3     4   ar
     4     4     5   ar
     5     5     6   ar
     6     6     7   ar
     7     7     8   ar
     8     8     9   ar
     9     9    10   ar
    10    10    11    1
    11    10    12   ar
    12    12    16    1
    13    16    17   ar
    14    17    18   ar
    15    18    19   ar
    16    19    20   ar
    17    20    21   ar
    18    12    13   ar
    19    13    14   ar
    20    14    15   ar
    21    15    22    1
    22    22    23    1
    23    23    24    1
    24    15     2   ar
    25    24    22    1
    26     7     3   ar
    27    14     8   ar
    28    21    16   ar
@<TRIPOS>MOLECULE
*****
 24 28 0 0 0
SMALL
GASTEIGER

@<TRIPOS>ATOM
      1 O         144.0532  137.8888  166.9271 O.2     1  UNL1       -0.2636
      2 C         143.1386  139.0773  166.9628 C.ar    1  UNL1        0.2955
      3 C         142.5588  139.5387  168.2669 C.ar    1  UNL1        0.2051
      4 N         142.7069  139.0256  169.6686 N.ar    1  UNL1       -0.2206
      5 C         141.8838  139.8969  170.5705 C.ar    1  UNL1        0.1197
      6 C         141.2271  140.9485  169.7262 C.ar    1  UNL1        0.1023
      7 N         141.6442  140.7271  168.3025 N.ar    1  UNL1       -0.2835
      8 C         141.3095  141.4541  167.0339 C.ar    1  UNL1        0.0836
      9 C         140.3950  142.6426  167.0695 C.ar    1  UNL1        0.0486
     10 C         140.0602  143.3696  165.8009 C.ar    1  UNL1        0.1416
     11 F         139.1457  144.5580  165.8365 F       1  UNL1       -0.2041
     12 C         140.6401  142.9082  164.4967 C.ar    1  UNL1        0.0291
     13 C         141.5546  141.7198  164.4611 C.ar    1  UNL1        0.0210
     14 C         141.8893  140.9927  165.7297 C.ar    1  UNL1        0.0788
     15 N         142.8038  139.8044  165.6941 N.ar    1  UNL1       -0.2935
     16 C         140.3053  143.6353  163.2280 C.ar    1  UNL1        0.0053
     17 C         140.5295  145.1152  163.1303 C.ar    1  UNL1        0.0208
     18 C         140.1947  145.8423  161.8618 C.ar    1  UNL1        0.0989
     19 N         139.6358  145.0895  160.6909 N.ar    1  UNL1       -0.2423
     20 C         139.4116  143.6096  160.7886 C.ar    1  UNL1        0.0989
     21 C         139.7464  142.8825  162.0573 C.ar    1  UNL1        0.0208
     22 C         143.3837  139.3430  164.3899 C.3     1  UNL1        0.0886
     23 C         143.2508  138.5744  163.1087 C.3     1  UNL1        0.0246
     24 C         144.5208  139.3124  163.4122 C.3     1  UNL1        0.0246
@<TRIPOS>BOND
     1     1     2    2
     2     2     3   ar
     3     3     4   ar
     4     4     5   ar
     5     5     6   ar
     6     6     7   ar
     7     7     8   ar
     8     8     9   ar
     9     9    10   ar
    10    10    11    1
    11    10    12   ar
    12    12    16    1
    13    16    17   ar
    14    17    18   ar
    15    18    19   ar
    16    19    20   ar
    17    20    21   ar
    18    12    13   ar
    19    13    14   ar
    20    14    15   ar
    21    15    22    1
    22    22    23    1
    23    23    24    1
    24    15     2   ar
    25    24    22    1
    26     7     3   ar
    27    14     8   ar
    28    21    16   ar
@<TRIPOS>MOLECULE
*****
 24 28 0 0 0
SMALL
GASTEIGER

@<TRIPOS>ATOM
      1 O         138.2026  139.1125  168.4044 O.2     1  UNL1       -0.2636
      2 C         139.4312  139.9430  168.1783 C.ar    1  UNL1        0.2955
      3 C         140.2139  140.4587  169.3494 C.ar    1  UNL1        0.2051
      4 N         140.0191  140.3125  170.8295 N.ar    1  UNL1       -0.2206
      5 C         141.1273  141.0525  171.5181 C.ar    1  UNL1        0.1197
      6 C         142.0070  141.6561  170.4636 C.ar    1  UNL1        0.1023
      7 N         141.4424  141.2891  169.1233 N.ar    1  UNL1       -0.2835
      8 C         141.8883  141.6037  167.7261 C.ar    1  UNL1        0.0836
      9 C         143.1169  142.4341  167.4999 C.ar    1  UNL1        0.0486
     10 C         143.5627  142.7488  166.1027 C.ar    1  UNL1        0.1416
     11 F         144.7913  143.5792  165.8767 F       1  UNL1       -0.2041
     12 C         142.7801  142.2330  164.9317 C.ar    1  UNL1        0.0291
     13 C         141.5516  141.4027  165.1578 C.ar    1  UNL1        0.0210
     14 C         141.1056  141.0880  166.5550 C.ar    1  UNL1        0.0788
     15 N         139.8772  140.2576  166.7811 N.ar    1  UNL1       -0.2935
     16 C         143.2260  142.5477  163.5344 C.ar    1  UNL1        0.0053
     17 C         142.3862  143.4312  162.6603 C.ar    1  UNL1        0.0208
     18 C         142.8321  143.7459  161.2631 C.ar    1  UNL1        0.0989
     19 N         144.1178  143.1771  160.7401 N.ar    1  UNL1       -0.2423
     20 C         144.9576  142.2937  161.6142 C.ar    1  UNL1        0.0989
     21 C         144.5117  141.9790  163.0115 C.ar    1  UNL1        0.0208
     22 C         139.0945  139.7419  165.6099 C.3     1  UNL1        0.0886
     23 C         138.1775  139.9908  164.4494 C.3     1  UNL1        0.0246
     24 C         138.6559  138.5997  164.7422 C.3     1  UNL1        0.0246
@<TRIPOS>BOND
     1     1     2    2
     2     2     3   ar
     3     3     4   ar
     4     4     5   ar
     5     5     6   ar
     6     6     7   ar
     7     7     8   ar
     8     8     9   ar
     9     9    10   ar
    10    10    11    1
    11    10    12   ar
    12    12    16    1
    13    16    17   ar
    14    17    18   ar
    15    18    19   ar
    16    19    20   ar
    17    20    21   ar
    18    12    13   ar
    19    13    14   ar
    20    14    15   ar
    21    15    22    1
    22    22    23    1
    23    23    24    1
    24    15     2   ar
    25    24    22    1
    26     7     3   ar
    27    14     8   ar
    28    21    16   ar
@<TRIPOS>MOLECULE
*****
 24 28 0 0 0
SMALL
GASTEIGER

@<TRIPOS>ATOM
      1 O         138.7776  142.3803  161.5387 O.2     1  UNL1       -0.2636
      2 C         139.5693  141.5671  162.5195 C.ar    1  UNL1        0.2955
      3 C         140.2250  140.2917  162.0800 C.ar    1  UNL1        0.2051
      4 N         140.2659  139.5888  160.7554 N.ar    1  UNL1       -0.2206
      5 C         141.0828  138.3413  160.9178 C.ar    1  UNL1        0.1197
      6 C         141.5468  138.2731  162.3426 C.ar    1  UNL1        0.1023
      7 N         141.0166  139.4785  163.0609 N.ar    1  UNL1       -0.2835
      8 C         141.1524  139.9408  164.4814 C.ar    1  UNL1        0.0836
      9 C         141.9440  139.1276  165.4623 C.ar    1  UNL1        0.0486
     10 C         142.0798  139.5899  166.8828 C.ar    1  UNL1        0.1416
     11 F         142.8714  138.7767  167.8637 F       1  UNL1       -0.2041
     12 C         141.4240  140.8653  167.3224 C.ar    1  UNL1        0.0291
     13 C         140.6325  141.6784  166.3416 C.ar    1  UNL1        0.0210
     14 C         140.4966  141.2162  164.9210 C.ar    1  UNL1        0.0788
     15 N         139.7051  142.0293  163.9401 N.ar    1  UNL1       -0.2935
     16 C         141.5599  141.3275  168.7430 C.ar    1  UNL1        0.0053
     17 C         142.5012  142.4454  169.0811 C.ar    1  UNL1        0.0208
     18 C         142.6370  142.9077  170.5016 C.ar    1  UNL1        0.0989
     19 N         141.8316  142.2521  171.5840 N.ar    1  UNL1       -0.2423
     20 C         140.8904  141.1342  171.2459 C.ar    1  UNL1        0.0989
     21 C         140.7545  140.6720  169.8253 C.ar    1  UNL1        0.0208
     22 C         139.0493  143.3048  164.3798 C.3     1  UNL1        0.0886
     23 C         137.8093  144.0799  164.7133 C.3     1  UNL1        0.0246
     24 C         139.1535  144.7387  164.8076 C.3     1  UNL1        0.0246
@<TRIPOS>BOND
     1     1     2    2
     2     2     3   ar
     3     3     4   ar
     4     4     5   ar
     5     5     6   ar
     6     6     7   ar
     7     7     8   ar
     8     8     9   ar
     9     9    10   ar
    10    10    11    1
    11    10    12   ar
    12    12    16    1
    13    16    17   ar
    14    17    18   ar
    15    18    19   ar
    16    19    20   ar
    17    20    21   ar
    18    12    13   ar
    19    13    14   ar
    20    14    15   ar
    21    15    22    1
    22    22    23    1
    23    23    24    1
    24    15     2   ar
    25    24    22    1
    26     7     3   ar
    27    14     8   ar
    28    21    16   ar
@<TRIPOS>MOLECULE
*****
 24 28 0 0 0
SMALL
GASTEIGER

@<TRIPOS>ATOM
      1 O         139.5512  143.1824  160.5884 O.2     1  UNL1       -0.2636
      2 C         139.5092  142.3727  161.8504 C.ar    1  UNL1        0.2955
      3 C         138.8756  141.0131  161.8485 C.ar    1  UNL1        0.2051
      4 N         138.2158  140.2148  160.7634 N.ar    1  UNL1       -0.2206
      5 C         137.7661  138.9117  161.3548 C.ar    1  UNL1        0.1197
      6 C         138.1479  138.9047  162.8054 C.ar    1  UNL1        0.1023
      7 N         138.8337  140.2034  163.1105 N.ar    1  UNL1       -0.2835
      8 C         139.4253  140.7534  164.3745 C.ar    1  UNL1        0.0836
      9 C         139.3833  139.9437  165.6365 C.ar    1  UNL1        0.0486
     10 C         139.9749  140.4936  166.9004 C.ar    1  UNL1        0.1416
     11 F         139.9330  139.6839  168.1624 F       1  UNL1       -0.2041
     12 C         140.6085  141.8533  166.9023 C.ar    1  UNL1        0.0291
     13 C         140.6505  142.6629  165.6404 C.ar    1  UNL1        0.0210
     14 C         140.0588  142.1130  164.3764 C.ar    1  UNL1        0.0788
     15 N         140.1008  142.9226  163.1144 N.ar    1  UNL1       -0.2935
     16 C         141.2001  142.4032  168.1663 C.ar    1  UNL1        0.0053
     17 C         140.3874  143.3100  169.0422 C.ar    1  UNL1        0.0208
     18 C         140.9790  143.8599  170.3061 C.ar    1  UNL1        0.0989
     19 N         142.3832  143.5030  170.6943 N.ar    1  UNL1       -0.2423
     20 C         143.1960  142.5962  169.8184 C.ar    1  UNL1        0.0989
     21 C         142.6043  142.0463  168.5544 C.ar    1  UNL1        0.0208
     22 C         140.7344  144.2823  163.1164 C.3     1  UNL1        0.0886
     23 C         140.7026  145.7307  162.7281 C.3     1  UNL1        0.0246
     24 C         141.8636  145.1887  163.5079 C.3     1  UNL1        0.0246
@<TRIPOS>BOND
     1     1     2    2
     2     2     3   ar
     3     3     4   ar
     4     4     5   ar
     5     5     6   ar
     6     6     7   ar
     7     7     8   ar
     8     8     9   ar
     9     9    10   ar
    10    10    11    1
    11    10    12   ar
    12    12    16    1
    13    16    17   ar
    14    17    18   ar
    15    18    19   ar
    16    19    20   ar
    17    20    21   ar
    18    12    13   ar
    19    13    14   ar
    20    14    15   ar
    21    15    22    1
    22    22    23    1
    23    23    24    1
    24    15     2   ar
    25    24    22    1
    26     7     3   ar
    27    14     8   ar
    28    21    16   ar
@<TRIPOS>MOLECULE
*****
 24 28 0 0 0
SMALL
GASTEIGER

@<TRIPOS>ATOM
      1 O         138.0344  137.9307  166.2330 O.2     1  UNL1       -0.2636
      2 C         138.8164  139.2065  166.1280 C.ar    1  UNL1        0.2955
      3 C         139.2321  139.9359  167.3710 C.ar    1  UNL1        0.2051
      4 N         139.0175  139.6423  168.8262 N.ar    1  UNL1       -0.2206
      5 C         139.6669  140.7365  169.6205 C.ar    1  UNL1        0.1197
      6 C         140.2829  141.7064  168.6562 C.ar    1  UNL1        0.1023
      7 N         140.0141  141.2116  167.2659 N.ar    1  UNL1       -0.2835
      8 C         140.3805  141.7579  165.9178 C.ar    1  UNL1        0.0836
      9 C         141.1625  143.0336  165.8126 C.ar    1  UNL1        0.0486
     10 C         141.5288  143.5798  164.4645 C.ar    1  UNL1        0.1416
     11 F         142.3109  144.8555  164.3595 F       1  UNL1       -0.2041
     12 C         141.1132  142.8503  163.2215 C.ar    1  UNL1        0.0291
     13 C         140.3312  141.5747  163.3266 C.ar    1  UNL1        0.0210
     14 C         139.9648  141.0284  164.6748 C.ar    1  UNL1        0.0788
     15 N         139.1828  139.7528  164.7798 N.ar    1  UNL1       -0.2935
     16 C         141.4795  143.3967  161.8734 C.ar    1  UNL1        0.0053
     17 C         140.7910  144.6214  161.3482 C.ar    1  UNL1        0.0208
     18 C         141.1573  145.1677  160.0001 C.ar    1  UNL1        0.0989
     19 N         142.2122  144.4893  159.1773 N.ar    1  UNL1       -0.2423
     20 C         142.9007  143.2646  159.7025 C.ar    1  UNL1        0.0989
     21 C         142.5343  142.7183  161.0506 C.ar    1  UNL1        0.0208
     22 C         138.7671  139.0233  163.5367 C.3     1  UNL1        0.0886
     23 C         138.8187  137.8006  162.6695 C.3     1  UNL1        0.0246
     24 C         137.9955  138.9826  162.2511 C.3     1  UNL1        0.0246
@<TRIPOS>BOND
     1     1     2    2
     2     2     3   ar
     3     3     4   ar
     4     4     5   ar
     5     5     6   ar
     6     6     7   ar
     7     7     8   ar
     8     8     9   ar
     9     9    10   ar
    10    10    11    1
    11    10    12   ar
    12    12    16    1
    13    16    17   ar
    14    17    18   ar
    15    18    19   ar
    16    19    20   ar
    17    20    21   ar
    18    12    13   ar
    19    13    14   ar
    20    14    15   ar
    21    15    22    1
    22    22    23    1
    23    23    24    1
    24    15     2   ar
    25    24    22    1
    26     7     3   ar
    27    14     8   ar
    28    21    16   ar
@<TRIPOS>MOLECULE
*****
 24 28 0 0 0
SMALL
GASTEIGER

@<TRIPOS>ATOM
      1 O         144.1701  142.8944  168.6753 O.2     1  UNL1       -0.2636
      2 C         142.9447  142.1014  168.3292 C.ar    1  UNL1        0.2955
      3 C         142.0588  141.5755  169.4195 C.ar    1  UNL1        0.2051
      4 N         142.1375  141.6785  170.9138 N.ar    1  UNL1       -0.2206
      5 C         140.9608  140.9491  171.4912 C.ar    1  UNL1        0.1197
      6 C         140.1548  140.3955  170.3537 C.ar    1  UNL1        0.1023
      7 N         140.8335  140.7826  169.0732 N.ar    1  UNL1       -0.2835
      8 C         140.4941  140.5156  167.6368 C.ar    1  UNL1        0.0836
      9 C         139.2687  139.7227  167.2906 C.ar    1  UNL1        0.0486
     10 C         138.9293  139.4556  165.8541 C.ar    1  UNL1        0.1416
     11 F         137.7039  138.6627  165.5080 F       1  UNL1       -0.2041
     12 C         139.8151  139.9815  164.7638 C.ar    1  UNL1        0.0291
     13 C         141.0404  140.7744  165.1100 C.ar    1  UNL1        0.0210
     14 C         141.3799  141.0415  166.5465 C.ar    1  UNL1        0.0788
     15 N         142.6052  141.8343  166.8927 N.ar    1  UNL1       -0.2935
     16 C         139.4756  139.7144  163.3273 C.ar    1  UNL1        0.0053
     17 C         139.6837  138.3459  162.7495 C.ar    1  UNL1        0.0208
     18 C         139.3442  138.0788  161.3131 C.ar    1  UNL1        0.0989
     19 N         138.7966  139.1802  160.4544 N.ar    1  UNL1       -0.2423
     20 C         138.5886  140.5486  161.0323 C.ar    1  UNL1        0.0989
     21 C         138.9281  140.8157  162.4688 C.ar    1  UNL1        0.0208
     22 C         143.4911  142.3602  165.8024 C.3     1  UNL1        0.0886
     23 C         144.5186  142.1231  164.7358 C.3     1  UNL1        0.0246
     24 C         143.9979  143.5083  164.9806 C.3     1  UNL1        0.0246
@<TRIPOS>BOND
     1     1     2    2
     2     2     3   ar
     3     3     4   ar
     4     4     5   ar
     5     5     6   ar
     6     6     7   ar
     7     7     8   ar
     8     8     9   ar
     9     9    10   ar
    10    10    11    1
    11    10    12   ar
    12    12    16    1
    13    16    17   ar
    14    17    18   ar
    15    18    19   ar
    16    19    20   ar
    17    20    21   ar
    18    12    13   ar
    19    13    14   ar
    20    14    15   ar
    21    15    22    1
    22    22    23    1
    23    23    24    1
    24    15     2   ar
    25    24    22    1
    26     7     3   ar
    27    14     8   ar
    28    21    16   ar
