@<TRIPOS>MOLECULE
*****
 39 43 0 0 0
SMALL
GASTEIGER

@<TRIPOS>ATOM
      1 C         139.9606  142.7658  160.2545 C.3     1  UNL1        0.0080
      2 C         139.8455  141.3824  160.8229 C.3     1  UNL1        0.0177
      3 C         140.0375  141.1574  162.2934 C.3     1  UNL1        0.0721
      4 N         140.3445  142.3157  163.1956 N.3     1  UNL1       -0.2736
      5 C         140.4595  143.6991  162.6273 C.3     1  UNL1        0.0776
      6 C         140.2676  143.9241  161.1567 C.3     1  UNL1        0.0525
      7 C         140.5365  142.0907  164.6661 C.3     1  UNL1        0.0582
      8 C         139.6721  141.5871  165.7839 C.3     1  UNL1        0.0205
      9 C         140.8080  141.7725  166.7459 C.3     1  UNL1        0.0294
     10 C         141.6724  142.2761  165.6282 C.3     1  UNL1        0.0205
     11 C         141.0000  141.5475  168.2164 C.ar    1  UNL1        0.0325
     12 C         140.6078  142.6138  169.1958 C.ar    1  UNL1        0.1383
     13 F         140.0236  143.9051  168.7046 F       1  UNL1       -0.2044
     14 C         140.7997  142.3888  170.6664 C.ar    1  UNL1        0.0295
     15 C         141.3839  141.0975  171.1575 C.ar    1  UNL1        0.0046
     16 C         141.7762  140.0312  170.1781 C.ar    1  UNL1        0.0295
     17 C         141.5842  140.2562  168.7076 C.ar    1  UNL1        0.1383
     18 F         141.9764  139.1899  167.7283 F       1  UNL1       -0.2044
     19 C         140.3826  145.3075  160.5884 C.2     1  UNL1        0.0513
     20 O         141.5381  145.6592  159.6990 O.co2   1  UNL1       -0.5491
     21 O         139.3421  146.3392  160.9095 O.co2   1  UNL1       -0.5491
     22 C         139.7686  142.9908  158.7840 C.3     1  UNL1        0.0033
     23 C         140.8326  142.5673  157.8153 C.3     1  UNL1        0.0339
     24 C         142.2753  142.5986  158.2250 C.3     1  UNL1        0.1350
     25 O         143.1363  143.7683  157.8498 O.3     1  UNL1       -0.3800
     26 H         142.6092  144.4100  157.3485 H       1  UNL1        0.2108
     27 C         144.2860  143.3836  162.1735 C.ar    1  UNL1        0.1388
     28 C         144.8677  142.2453  162.9583 C.ar    1  UNL1        0.0384
     29 C         144.7792  140.8454  162.4269 C.ar    1  UNL1        0.0222
     30 C         144.1090  140.5837  161.1108 C.ar    1  UNL1        0.0814
     31 N         144.0204  139.1838  160.5794 N.ar    1  UNL1       -0.2415
     32 C         143.3502  138.9221  159.2632 C.ar    1  UNL1        0.1281
     33 C         142.7685  140.0604  158.4784 C.ar    1  UNL1        0.1575
     34 F         142.0983  139.7988  157.1622 F       1  UNL1       -0.2028
     35 C         142.8570  141.4604  159.0097 C.ar    1  UNL1        0.0348
     36 C         143.5273  141.7220  160.3260 C.ar    1  UNL1        0.0212
     37 C         143.6158  143.1219  160.8573 C.ar    1  UNL1        0.0382
     38 C         143.6238  145.1632  163.9467 C.3     1  UNL1        0.2525
     39 O         144.3745  144.7835  162.7049 O.3     1  UNL1       -0.4714
@<TRIPOS>UNITY_ATOM_ATTR
20 1
charge -1
@<TRIPOS>BOND
     1    38    39    1
     2    39    27    1
     3    27    28   ar
     4    28    29   ar
     5    29    30   ar
     6    30    31   ar
     7    31    32   ar
     8    32    33   ar
     9    33    34    1
    10    33    35   ar
    11    35    24    1
    12    24    25    1
    13    24    23    1
    14    23    22    1
    15     1    22    1
    16     1     2    1
    17     2     3    1
    18     3     4    1
    19     4     7    1
    20     7     8    1
    21     8     9    1
    22     9    11    1
    23    11    12   ar
    24    12    13    1
    25    12    14   ar
    26    14    15   ar
    27    15    16   ar
    28    16    17   ar
    29    17    18    1
    30     9    10    1
    31     4     5    1
    32     5     6    1
    33     6    19    1
    34    19    20   ar
    35    19    21   ar
    36    35    36   ar
    37    36    37   ar
    38    37    27   ar
    39    36    30   ar
    40     6     1    1
    41    10     7    1
    42    17    11   ar
    43    25    26    1
@<TRIPOS>MOLECULE
*****
 39 43 0 0 0
SMALL
GASTEIGER

@<TRIPOS>ATOM
      1 C         142.8131  141.8553  164.5930 C.3     1  UNL1        0.0080
      2 C         142.4640  140.3964  164.5974 C.3     1  UNL1        0.0177
      3 C         142.1137  139.7053  163.3130 C.3     1  UNL1        0.0721
      4 N         142.1125  140.4729  162.0243 N.3     1  UNL1       -0.2736
      5 C         142.4617  141.9317  162.0199 C.3     1  UNL1        0.0776
      6 C         142.8120  142.6229  163.3043 C.3     1  UNL1        0.0525
      7 C         141.7623  139.7818  160.7400 C.3     1  UNL1        0.0582
      8 C         142.0157  140.0523  159.2865 C.3     1  UNL1        0.0205
      9 C         141.2669  138.8043  158.9235 C.3     1  UNL1        0.0294
     10 C         141.0134  138.5338  160.3770 C.3     1  UNL1        0.0205
     11 C         140.9166  138.1131  157.6392 C.ar    1  UNL1        0.0325
     12 C         139.6649  138.4885  156.9027 C.ar    1  UNL1        0.1383
     13 F         138.7636  139.5551  157.4505 F       1  UNL1       -0.2044
     14 C         139.3146  137.7974  155.6183 C.ar    1  UNL1        0.0295
     15 C         140.2159  136.7308  155.0704 C.ar    1  UNL1        0.0046
     16 C         141.4676  136.3555  155.8070 C.ar    1  UNL1        0.0295
     17 C         141.8179  137.0466  157.0914 C.ar    1  UNL1        0.1383
     18 F         143.0695  136.6712  157.8279 F       1  UNL1       -0.2044
     19 C         143.1611  144.0817  163.3000 C.2     1  UNL1        0.0513
     20 O         144.3494  144.5661  162.5233 O.co2   1  UNL1       -0.5491
     21 O         142.3220  145.0560  164.0723 O.co2   1  UNL1       -0.5491
     22 C         143.1634  142.5464  165.8774 C.3     1  UNL1        0.0033
     23 C         142.5608  142.0792  167.1690 C.3     1  UNL1        0.0339
     24 C         141.1003  142.2930  167.4360 C.3     1  UNL1        0.1350
     25 O         140.6609  143.3681  168.3852 O.3     1  UNL1       -0.3800
     26 H         141.4397  143.8278  168.7360 H       1  UNL1        0.2108
     27 C         138.8155  143.8840  163.9006 C.ar    1  UNL1        0.1388
     28 C         137.7945  143.0227  163.2183 C.ar    1  UNL1        0.0384
     29 C         137.5349  141.6312  163.7144 C.ar    1  UNL1        0.0222
     30 C         138.2965  141.1008  164.8929 C.ar    1  UNL1        0.0814
     31 N         138.0369  139.7092  165.3890 N.ar    1  UNL1       -0.2415
     32 C         138.7985  139.1789  166.5674 C.ar    1  UNL1        0.1281
     33 C         139.8196  140.0402  167.2498 C.ar    1  UNL1        0.1575
     34 F         140.5812  139.5098  168.4282 F       1  UNL1       -0.2028
     35 C         140.0792  141.4318  166.7537 C.ar    1  UNL1        0.0348
     36 C         139.3176  141.9621  165.5752 C.ar    1  UNL1        0.0212
     37 C         139.5771  143.3537  165.0790 C.ar    1  UNL1        0.0382
     38 C         139.6180  145.4902  162.0228 C.3     1  UNL1        0.2525
     39 O         139.0751  145.2756  163.4045 O.3     1  UNL1       -0.4714
@<TRIPOS>UNITY_ATOM_ATTR
20 1
charge -1
@<TRIPOS>BOND
     1    38    39    1
     2    39    27    1
     3    27    28   ar
     4    28    29   ar
     5    29    30   ar
     6    30    31   ar
     7    31    32   ar
     8    32    33   ar
     9    33    34    1
    10    33    35   ar
    11    35    24    1
    12    24    25    1
    13    24    23    1
    14    23    22    1
    15     1    22    1
    16     1     2    1
    17     2     3    1
    18     3     4    1
    19     4     7    1
    20     7     8    1
    21     8     9    1
    22     9    11    1
    23    11    12   ar
    24    12    13    1
    25    12    14   ar
    26    14    15   ar
    27    15    16   ar
    28    16    17   ar
    29    17    18    1
    30     9    10    1
    31     4     5    1
    32     5     6    1
    33     6    19    1
    34    19    20   ar
    35    19    21   ar
    36    35    36   ar
    37    36    37   ar
    38    37    27   ar
    39    36    30   ar
    40     6     1    1
    41    10     7    1
    42    17    11   ar
    43    25    26    1
@<TRIPOS>MOLECULE
*****
 39 43 0 0 0
SMALL
GASTEIGER

@<TRIPOS>ATOM
      1 C         143.4872  141.6561  163.8709 C.3     1  UNL1        0.0080
      2 C         143.5118  140.1563  163.8653 C.3     1  UNL1        0.0177
      3 C         143.1165  139.4043  162.6291 C.3     1  UNL1        0.0721
      4 N         142.6965  140.1520  161.3985 N.3     1  UNL1       -0.2736
      5 C         142.6719  141.6518  161.4040 C.3     1  UNL1        0.0776
      6 C         143.0673  142.4039  162.6402 C.3     1  UNL1        0.0525
      7 C         142.3012  139.4000  160.1623 C.3     1  UNL1        0.0582
      8 C         141.1941  138.4528  159.8056 C.3     1  UNL1        0.0205
      9 C         141.7420  138.3364  158.4140 C.3     1  UNL1        0.0294
     10 C         142.8491  139.2836  158.7708 C.3     1  UNL1        0.0205
     11 C         141.3467  137.5844  157.1779 C.ar    1  UNL1        0.0325
     12 C         140.1992  138.0672  156.3412 C.ar    1  UNL1        0.1383
     13 F         139.4470  139.3019  156.7407 F       1  UNL1       -0.2044
     14 C         139.8038  137.3151  155.1050 C.ar    1  UNL1        0.0295
     15 C         140.5559  136.0804  154.7055 C.ar    1  UNL1        0.0046
     16 C         141.7035  135.5976  155.5423 C.ar    1  UNL1        0.0295
     17 C         142.0988  136.3496  156.7784 C.ar    1  UNL1        0.1383
     18 F         143.2464  135.8669  157.6151 F       1  UNL1       -0.2044
     19 C         143.0427  143.9036  162.6457 C.2     1  UNL1        0.0513
     20 O         141.7408  144.6317  162.8034 O.co2   1  UNL1       -0.5491
     21 O         144.3200  144.6752  162.4934 O.co2   1  UNL1       -0.5491
     22 C         143.8826  142.4081  165.1070 C.3     1  UNL1        0.0033
     23 C         143.1247  142.2019  166.3849 C.3     1  UNL1        0.0339
     24 C         141.6477  142.4601  166.4310 C.3     1  UNL1        0.1350
     25 O         141.0365  143.4833  165.5202 O.3     1  UNL1       -0.3800
     26 H         141.7293  143.8822  164.9709 H       1  UNL1        0.2108
     27 C         138.9767  139.1720  164.9130 C.ar    1  UNL1        0.1388
     28 C         138.1111  138.4071  165.8699 C.ar    1  UNL1        0.0384
     29 C         138.1358  138.7382  167.3327 C.ar    1  UNL1        0.0222
     30 C         139.0261  139.8341  167.8387 C.ar    1  UNL1        0.0814
     31 N         139.0509  140.1652  169.3015 N.ar    1  UNL1       -0.2415
     32 C         139.9412  141.2612  169.8074 C.ar    1  UNL1        0.1281
     33 C         140.8069  142.0262  168.8506 C.ar    1  UNL1        0.1575
     34 F         141.6972  143.1222  169.3566 F       1  UNL1       -0.2028
     35 C         140.7821  141.6951  167.3878 C.ar    1  UNL1        0.0348
     36 C         139.8917  140.5991  166.8818 C.ar    1  UNL1        0.0212
     37 C         139.8670  140.2680  165.4190 C.ar    1  UNL1        0.0382
     38 C         139.1192  139.9296  162.4320 C.3     1  UNL1        0.2525
     39 O         138.9519  138.8410  163.4502 O.3     1  UNL1       -0.4714
@<TRIPOS>UNITY_ATOM_ATTR
20 1
charge -1
@<TRIPOS>BOND
     1    38    39    1
     2    39    27    1
     3    27    28   ar
     4    28    29   ar
     5    29    30   ar
     6    30    31   ar
     7    31    32   ar
     8    32    33   ar
     9    33    34    1
    10    33    35   ar
    11    35    24    1
    12    24    25    1
    13    24    23    1
    14    23    22    1
    15     1    22    1
    16     1     2    1
    17     2     3    1
    18     3     4    1
    19     4     7    1
    20     7     8    1
    21     8     9    1
    22     9    11    1
    23    11    12   ar
    24    12    13    1
    25    12    14   ar
    26    14    15   ar
    27    15    16   ar
    28    16    17   ar
    29    17    18    1
    30     9    10    1
    31     4     5    1
    32     5     6    1
    33     6    19    1
    34    19    20   ar
    35    19    21   ar
    36    35    36   ar
    37    36    37   ar
    38    37    27   ar
    39    36    30   ar
    40     6     1    1
    41    10     7    1
    42    17    11   ar
    43    25    26    1
@<TRIPOS>MOLECULE
*****
 39 43 0 0 0
SMALL
GASTEIGER

@<TRIPOS>ATOM
      1 C         139.2122  142.6223  161.7984 C.3     1  UNL1        0.0080
      2 C         139.4441  141.3470  161.0433 C.3     1  UNL1        0.0177
      3 C         140.6101  141.2314  160.1068 C.3     1  UNL1        0.0721
      4 N         141.5442  142.3909  159.9253 N.3     1  UNL1       -0.2736
      5 C         141.3123  143.6661  160.6803 C.3     1  UNL1        0.0776
      6 C         140.1463  143.7818  161.6169 C.3     1  UNL1        0.0525
      7 C         142.7101  142.2752  158.9888 C.3     1  UNL1        0.0582
      8 C         143.8284  141.2928  158.8035 C.3     1  UNL1        0.0205
      9 C         144.3592  142.1116  157.6643 C.3     1  UNL1        0.0294
     10 C         143.2409  143.0941  157.8496 C.3     1  UNL1        0.0205
     11 C         145.5251  141.9959  156.7278 C.ar    1  UNL1        0.0325
     12 C         145.3595  141.3075  155.4054 C.ar    1  UNL1        0.1383
     13 F         144.0279  140.7347  155.0196 F       1  UNL1       -0.2044
     14 C         146.5255  141.1918  154.4688 C.ar    1  UNL1        0.0295
     15 C         147.8571  141.7646  154.8546 C.ar    1  UNL1        0.0046
     16 C         148.0227  142.4530  156.1770 C.ar    1  UNL1        0.0295
     17 C         146.8567  142.5687  157.1136 C.ar    1  UNL1        0.1383
     18 F         147.0223  143.2571  158.4359 F       1  UNL1       -0.2044
     19 C         139.9144  145.0570  162.3719 C.2     1  UNL1        0.0513
     20 O         139.1953  146.1975  161.7146 O.co2   1  UNL1       -0.5491
     21 O         140.4017  145.1917  163.7841 O.co2   1  UNL1       -0.5491
     22 C         138.0462  142.7380  162.7349 C.3     1  UNL1        0.0033
     23 C         138.1460  142.1906  164.1279 C.3     1  UNL1        0.0339
     24 C         139.4880  141.8519  164.7063 C.3     1  UNL1        0.1350
     25 O         140.2597  142.8884  165.4678 O.3     1  UNL1       -0.3800
     26 H         139.7530  143.7152  165.4928 H       1  UNL1        0.2108
     27 C         143.5938  141.3354  162.9384 C.ar    1  UNL1        0.1388
     28 C         144.1639  139.9601  162.7553 C.ar    1  UNL1        0.0384
     29 C         143.3654  138.7570  163.1614 C.ar    1  UNL1        0.0222
     30 C         141.9968  138.9291  163.7507 C.ar    1  UNL1        0.0814
     31 N         141.1984  137.7260  164.1569 N.ar    1  UNL1       -0.2415
     32 C         139.8298  137.8982  164.7462 C.ar    1  UNL1        0.1281
     33 C         139.2596  139.2735  164.9293 C.ar    1  UNL1        0.1575
     34 F         137.8910  139.4456  165.5186 F       1  UNL1       -0.2028
     35 C         140.0581  140.4766  164.5232 C.ar    1  UNL1        0.0348
     36 C         141.4267  140.3044  163.9338 C.ar    1  UNL1        0.0212
     37 C         142.2252  141.5075  163.5277 C.ar    1  UNL1        0.0382
     38 C         143.9966  143.9007  163.0198 C.3     1  UNL1        0.2525
     39 O         144.3922  142.5385  162.5322 O.3     1  UNL1       -0.4714
@<TRIPOS>UNITY_ATOM_ATTR
20 1
charge -1
@<TRIPOS>BOND
     1    38    39    1
     2    39    27    1
     3    27    28   ar
     4    28    29   ar
     5    29    30   ar
     6    30    31   ar
     7    31    32   ar
     8    32    33   ar
     9    33    34    1
    10    33    35   ar
    11    35    24    1
    12    24    25    1
    13    24    23    1
    14    23    22    1
    15     1    22    1
    16     1     2    1
    17     2     3    1
    18     3     4    1
    19     4     7    1
    20     7     8    1
    21     8     9    1
    22     9    11    1
    23    11    12   ar
    24    12    13    1
    25    12    14   ar
    26    14    15   ar
    27    15    16   ar
    28    16    17   ar
    29    17    18    1
    30     9    10    1
    31     4     5    1
    32     5     6    1
    33     6    19    1
    34    19    20   ar
    35    19    21   ar
    36    35    36   ar
    37    36    37   ar
    38    37    27   ar
    39    36    30   ar
    40     6     1    1
    41    10     7    1
    42    17    11   ar
    43    25    26    1
@<TRIPOS>MOLECULE
*****
 39 43 0 0 0
SMALL
GASTEIGER

@<TRIPOS>ATOM
      1 C         141.7204  143.2206  160.3705 C.3     1  UNL1        0.0080
      2 C         142.5885  143.9416  161.3588 C.3     1  UNL1        0.0177
      3 C         142.4733  143.6345  162.8225 C.3     1  UNL1        0.0721
      4 N         141.4900  142.6063  163.2979 N.3     1  UNL1       -0.2736
      5 C         140.6220  141.8853  162.3097 C.3     1  UNL1        0.0776
      6 C         140.7371  142.1924  160.8460 C.3     1  UNL1        0.0525
      7 C         141.3749  142.2992  164.7616 C.3     1  UNL1        0.0582
      8 C         142.2989  142.3875  165.9398 C.3     1  UNL1        0.0205
      9 C         141.2120  141.8647  166.8316 C.3     1  UNL1        0.0294
     10 C         140.2879  141.7764  165.6534 C.3     1  UNL1        0.0205
     11 C         141.0968  141.5576  168.2953 C.ar    1  UNL1        0.0325
     12 C         140.5167  142.5756  169.2318 C.ar    1  UNL1        0.1383
     13 F         140.0519  143.9008  168.7047 F       1  UNL1       -0.2044
     14 C         140.4015  142.2685  170.6956 C.ar    1  UNL1        0.0295
     15 C         140.8663  140.9433  171.2227 C.ar    1  UNL1        0.0046
     16 C         141.4464  139.9253  170.2861 C.ar    1  UNL1        0.0295
     17 C         141.5616  140.2324  168.8224 C.ar    1  UNL1        0.1383
     18 F         142.1417  139.2144  167.8859 F       1  UNL1       -0.2044
     19 C         139.8691  141.4714  159.8578 C.2     1  UNL1        0.0513
     20 O         138.5713  142.0799  159.4155 O.co2   1  UNL1       -0.5491
     21 O         140.2987  140.1420  159.3119 O.co2   1  UNL1       -0.5491
     22 C         141.8356  143.5278  158.9069 C.3     1  UNL1        0.0033
     23 C         143.1739  143.4714  158.2318 C.3     1  UNL1        0.0339
     24 C         144.1623  142.4094  158.6134 C.3     1  UNL1        0.1350
     25 O         145.5480  142.7933  159.0404 O.3     1  UNL1       -0.3800
     26 H         145.6387  143.7587  159.0142 H       1  UNL1        0.2108
     27 C         144.1833  139.9506  162.3822 C.ar    1  UNL1        0.1388
     28 C         143.7859  138.5050  162.3367 C.ar    1  UNL1        0.0384
     29 C         143.3815  137.8789  161.0350 C.ar    1  UNL1        0.0222
     30 C         143.3745  138.6985  159.7787 C.ar    1  UNL1        0.0814
     31 N         142.9700  138.0724  158.4770 N.ar    1  UNL1       -0.2415
     32 C         142.9630  138.8920  157.2208 C.ar    1  UNL1        0.1281
     33 C         143.3604  140.3377  157.2662 C.ar    1  UNL1        0.1575
     34 F         143.3534  141.1573  156.0100 F       1  UNL1       -0.2028
     35 C         143.7649  140.9638  158.5679 C.ar    1  UNL1        0.0348
     36 C         143.7719  140.1441  159.8242 C.ar    1  UNL1        0.0212
     37 C         144.1763  140.7702  161.1259 C.ar    1  UNL1        0.0382
     38 C         145.6439  141.6416  163.7078 C.3     1  UNL1        0.2525
     39 O         144.5878  140.5767  163.6839 O.3     1  UNL1       -0.4714
@<TRIPOS>UNITY_ATOM_ATTR
20 1
charge -1
@<TRIPOS>BOND
     1    38    39    1
     2    39    27    1
     3    27    28   ar
     4    28    29   ar
     5    29    30   ar
     6    30    31   ar
     7    31    32   ar
     8    32    33   ar
     9    33    34    1
    10    33    35   ar
    11    35    24    1
    12    24    25    1
    13    24    23    1
    14    23    22    1
    15     1    22    1
    16     1     2    1
    17     2     3    1
    18     3     4    1
    19     4     7    1
    20     7     8    1
    21     8     9    1
    22     9    11    1
    23    11    12   ar
    24    12    13    1
    25    12    14   ar
    26    14    15   ar
    27    15    16   ar
    28    16    17   ar
    29    17    18    1
    30     9    10    1
    31     4     5    1
    32     5     6    1
    33     6    19    1
    34    19    20   ar
    35    19    21   ar
    36    35    36   ar
    37    36    37   ar
    38    37    27   ar
    39    36    30   ar
    40     6     1    1
    41    10     7    1
    42    17    11   ar
    43    25    26    1
@<TRIPOS>MOLECULE
*****
 39 43 0 0 0
SMALL
GASTEIGER

@<TRIPOS>ATOM
      1 C         138.6709  141.3460  157.9483 C.3     1  UNL1        0.0080
      2 C         139.6024  142.3491  158.5616 C.3     1  UNL1        0.0177
      3 C         139.7128  143.7258  157.9765 C.3     1  UNL1        0.0721
      4 N         138.8917  144.0995  156.7780 N.3     1  UNL1       -0.2736
      5 C         137.9603  143.0964  156.1647 C.3     1  UNL1        0.0776
      6 C         137.8498  141.7196  156.7498 C.3     1  UNL1        0.0525
      7 C         139.0021  145.4762  156.1929 C.3     1  UNL1        0.0582
      8 C         139.9227  146.6433  156.3936 C.3     1  UNL1        0.0205
      9 C         139.1583  147.4233  155.3654 C.3     1  UNL1        0.0294
     10 C         138.2376  146.2562  155.1647 C.3     1  UNL1        0.0205
     11 C         139.2687  148.8000  154.7803 C.ar    1  UNL1        0.0325
     12 C         139.9386  148.9993  153.4531 C.ar    1  UNL1        0.1383
     13 F         140.4981  147.8219  152.7111 F       1  UNL1       -0.2044
     14 C         140.0490  150.3761  152.8679 C.ar    1  UNL1        0.0295
     15 C         139.4895  151.5535  153.6100 C.ar    1  UNL1        0.0046
     16 C         138.8195  151.3541  154.9372 C.ar    1  UNL1        0.0295
     17 C         138.7091  149.9774  155.5223 C.ar    1  UNL1        0.1383
     18 F         138.0392  149.7781  156.8495 F       1  UNL1       -0.2044
     19 C         136.9184  140.7165  156.1365 C.2     1  UNL1        0.0513
     20 O         135.6094  140.4052  156.7995 O.co2   1  UNL1       -0.5491
     21 O         137.2959  140.0248  154.8602 O.co2   1  UNL1       -0.5491
     22 C         138.5605  139.9692  158.5334 C.3     1  UNL1        0.0033
     23 C         138.1951  139.7953  159.9777 C.3     1  UNL1        0.0339
     24 C         139.2684  139.7713  161.0253 C.3     1  UNL1        0.1350
     25 O         140.6927  139.5104  160.6339 O.3     1  UNL1       -0.3800
     26 H         140.7455  139.3792  159.6743 H       1  UNL1        0.2108
     27 C         138.7128  143.9708  162.5437 C.ar    1  UNL1        0.1388
     28 C         138.3618  144.2077  163.9826 C.ar    1  UNL1        0.0384
     29 C         138.1960  143.0449  164.9155 C.ar    1  UNL1        0.0222
     30 C         138.3812  141.6450  164.4094 C.ar    1  UNL1        0.0814
     31 N         138.2154  140.4822  165.3422 N.ar    1  UNL1       -0.2415
     32 C         138.4007  139.0823  164.8362 C.ar    1  UNL1        0.1281
     33 C         138.7517  138.8454  163.3971 C.ar    1  UNL1        0.1575
     34 F         138.9369  137.4455  162.8910 F       1  UNL1       -0.2028
     35 C         138.9174  140.0082  162.4643 C.ar    1  UNL1        0.0348
     36 C         138.7322  141.4081  162.9704 C.ar    1  UNL1        0.0212
     37 C         138.8980  142.5710  162.0376 C.ar    1  UNL1        0.0382
     38 C         139.9808  146.1255  161.8371 C.3     1  UNL1        0.2525
     39 O         138.8786  145.1337  161.6108 O.3     1  UNL1       -0.4714
@<TRIPOS>UNITY_ATOM_ATTR
20 1
charge -1
@<TRIPOS>BOND
     1    38    39    1
     2    39    27    1
     3    27    28   ar
     4    28    29   ar
     5    29    30   ar
     6    30    31   ar
     7    31    32   ar
     8    32    33   ar
     9    33    34    1
    10    33    35   ar
    11    35    24    1
    12    24    25    1
    13    24    23    1
    14    23    22    1
    15     1    22    1
    16     1     2    1
    17     2     3    1
    18     3     4    1
    19     4     7    1
    20     7     8    1
    21     8     9    1
    22     9    11    1
    23    11    12   ar
    24    12    13    1
    25    12    14   ar
    26    14    15   ar
    27    15    16   ar
    28    16    17   ar
    29    17    18    1
    30     9    10    1
    31     4     5    1
    32     5     6    1
    33     6    19    1
    34    19    20   ar
    35    19    21   ar
    36    35    36   ar
    37    36    37   ar
    38    37    27   ar
    39    36    30   ar
    40     6     1    1
    41    10     7    1
    42    17    11   ar
    43    25    26    1
@<TRIPOS>MOLECULE
*****
 39 43 0 0 0
SMALL
GASTEIGER

@<TRIPOS>ATOM
      1 C         143.5856  140.7523  160.4230 C.3     1  UNL1        0.0080
      2 C         144.1615  139.7363  161.3643 C.3     1  UNL1        0.0177
      3 C         143.7953  139.7688  162.8186 C.3     1  UNL1        0.0721
      4 N         142.8532  140.8173  163.3315 N.3     1  UNL1       -0.2736
      5 C         142.2773  141.8333  162.3902 C.3     1  UNL1        0.0776
      6 C         142.6434  141.8008  160.9359 C.3     1  UNL1        0.0525
      7 C         142.4870  140.8498  164.7857 C.3     1  UNL1        0.0582
      8 C         141.7746  141.8220  165.6786 C.3     1  UNL1        0.0205
      9 C         141.9691  140.8958  166.8424 C.3     1  UNL1        0.0294
     10 C         142.6816  139.9236  165.9495 C.3     1  UNL1        0.0205
     11 C         141.6029  140.9283  168.2966 C.ar    1  UNL1        0.0325
     12 C         140.3644  140.2297  168.7739 C.ar    1  UNL1        0.1383
     13 F         139.4920  139.4985  167.7970 F       1  UNL1       -0.2044
     14 C         139.9982  140.2621  170.2282 C.ar    1  UNL1        0.0295
     15 C         140.8705  140.9933  171.2052 C.ar    1  UNL1        0.0046
     16 C         142.1091  141.6920  170.7278 C.ar    1  UNL1        0.0295
     17 C         142.4753  141.6595  169.2736 C.ar    1  UNL1        0.1383
     18 F         143.7139  142.3581  168.7963 F       1  UNL1       -0.2044
     19 C         142.0675  142.8168  159.9946 C.2     1  UNL1        0.0513
     20 O         140.6679  142.6539  159.4802 O.co2   1  UNL1       -0.5491
     21 O         142.8911  143.9956  159.5678 O.co2   1  UNL1       -0.5491
     22 C         143.9517  140.7198  158.9687 C.3     1  UNL1        0.0033
     23 C         143.0736  139.9978  157.9902 C.3     1  UNL1        0.0339
     24 C         142.0697  138.9966  158.4801 C.3     1  UNL1        0.1350
     25 O         142.5144  137.6187  158.8719 O.3     1  UNL1       -0.3800
     26 H         143.4735  137.5414  158.7494 H       1  UNL1        0.2108
     27 C         139.8952  138.5737  162.3971 C.ar    1  UNL1        0.1388
     28 C         138.4466  138.9505  162.4952 C.ar    1  UNL1        0.0384
     29 C         137.7229  139.4684  161.2877 C.ar    1  UNL1        0.0222
     30 C         138.4477  139.6094  159.9821 C.ar    1  UNL1        0.0814
     31 N         137.7240  140.1272  158.7746 N.ar    1  UNL1       -0.2415
     32 C         138.4488  140.2682  157.4689 C.ar    1  UNL1        0.1281
     33 C         139.8974  139.8913  157.3708 C.ar    1  UNL1        0.1575
     34 F         140.6223  140.0323  156.0651 F       1  UNL1       -0.2028
     35 C         140.6212  139.3735  158.5783 C.ar    1  UNL1        0.0348
     36 C         139.8963  139.2325  159.8839 C.ar    1  UNL1        0.0212
     37 C         140.6200  138.7147  161.0915 C.ar    1  UNL1        0.0382
     38 C         139.8483  137.6668  164.8313 C.3     1  UNL1        0.2525
     39 O         140.6189  138.0558  163.6046 O.3     1  UNL1       -0.4714
@<TRIPOS>UNITY_ATOM_ATTR
20 1
charge -1
@<TRIPOS>BOND
     1    38    39    1
     2    39    27    1
     3    27    28   ar
     4    28    29   ar
     5    29    30   ar
     6    30    31   ar
     7    31    32   ar
     8    32    33   ar
     9    33    34    1
    10    33    35   ar
    11    35    24    1
    12    24    25    1
    13    24    23    1
    14    23    22    1
    15     1    22    1
    16     1     2    1
    17     2     3    1
    18     3     4    1
    19     4     7    1
    20     7     8    1
    21     8     9    1
    22     9    11    1
    23    11    12   ar
    24    12    13    1
    25    12    14   ar
    26    14    15   ar
    27    15    16   ar
    28    16    17   ar
    29    17    18    1
    30     9    10    1
    31     4     5    1
    32     5     6    1
    33     6    19    1
    34    19    20   ar
    35    19    21   ar
    36    35    36   ar
    37    36    37   ar
    38    37    27   ar
    39    36    30   ar
    40     6     1    1
    41    10     7    1
    42    17    11   ar
    43    25    26    1
@<TRIPOS>MOLECULE
*****
 39 43 0 0 0
SMALL
GASTEIGER

@<TRIPOS>ATOM
      1 C         140.5254  142.5977  163.6369 C.3     1  UNL1        0.0080
      2 C         141.9936  142.3298  163.7874 C.3     1  UNL1        0.0177
      3 C         142.8600  142.1946  162.5704 C.3     1  UNL1        0.0721
      4 N         142.2582  142.3273  161.2028 N.3     1  UNL1       -0.2736
      5 C         140.7901  142.5952  161.0523 C.3     1  UNL1        0.0776
      6 C         139.9236  142.7304  162.2693 C.3     1  UNL1        0.0525
      7 C         143.1246  142.1922  159.9859 C.3     1  UNL1        0.0582
      8 C         143.9497  141.0913  159.3882 C.3     1  UNL1        0.0205
      9 C         144.3499  142.0010  158.2647 C.3     1  UNL1        0.0294
     10 C         143.5248  143.1019  158.8623 C.3     1  UNL1        0.0205
     11 C         145.2162  141.8658  157.0477 C.ar    1  UNL1        0.0325
     12 C         146.5954  142.4554  157.0397 C.ar    1  UNL1        0.1383
     13 F         147.1083  143.1802  158.2487 F       1  UNL1       -0.2044
     14 C         147.4619  142.3203  155.8227 C.ar    1  UNL1        0.0295
     15 C         146.9490  141.5955  154.6137 C.ar    1  UNL1        0.0046
     16 C         145.5697  141.0059  154.6217 C.ar    1  UNL1        0.0295
     17 C         144.7034  141.1411  155.8387 C.ar    1  UNL1        0.1383
     18 F         143.3242  140.5515  155.8466 F       1  UNL1       -0.2044
     19 C         138.4555  142.9983  162.1187 C.2     1  UNL1        0.0513
     20 O         137.9210  144.3845  162.3253 O.co2   1  UNL1       -0.5491
     21 O         137.5218  141.8800  161.7615 O.co2   1  UNL1       -0.5491
     22 C         139.6590  142.7328  164.8538 C.3     1  UNL1        0.0033
     23 C         138.4976  141.8051  165.0544 C.3     1  UNL1        0.0339
     24 C         138.7379  140.3730  165.4309 C.3     1  UNL1        0.1350
     25 O         137.5907  139.5086  165.8632 O.3     1  UNL1       -0.3800
     26 H         136.7706  140.0262  165.8436 H       1  UNL1        0.2108
     27 C         140.2207  138.4229  161.6563 C.ar    1  UNL1        0.1388
     28 C         141.6081  137.8553  161.6004 C.ar    1  UNL1        0.0384
     29 C         142.5011  137.9378  162.8028 C.ar    1  UNL1        0.0222
     30 C         142.0069  138.5879  164.0610 C.ar    1  UNL1        0.0814
     31 N         142.8999  138.6704  165.2633 N.ar    1  UNL1       -0.2415
     32 C         142.4056  139.3204  166.5215 C.ar    1  UNL1        0.1281
     33 C         141.0182  139.8880  166.5774 C.ar    1  UNL1        0.1575
     34 F         140.5240  140.5380  167.8356 F       1  UNL1       -0.2028
     35 C         140.1252  139.8055  165.3751 C.ar    1  UNL1        0.0348
     36 C         140.6195  139.1554  164.1168 C.ar    1  UNL1        0.0212
     37 C         139.7265  139.0729  162.9145 C.ar    1  UNL1        0.0382
     38 C         139.8914  138.5730  159.0835 C.3     1  UNL1        0.2525
     39 O         139.3277  138.3404  160.4539 O.3     1  UNL1       -0.4714
@<TRIPOS>UNITY_ATOM_ATTR
20 1
charge -1
@<TRIPOS>BOND
     1    38    39    1
     2    39    27    1
     3    27    28   ar
     4    28    29   ar
     5    29    30   ar
     6    30    31   ar
     7    31    32   ar
     8    32    33   ar
     9    33    34    1
    10    33    35   ar
    11    35    24    1
    12    24    25    1
    13    24    23    1
    14    23    22    1
    15     1    22    1
    16     1     2    1
    17     2     3    1
    18     3     4    1
    19     4     7    1
    20     7     8    1
    21     8     9    1
    22     9    11    1
    23    11    12   ar
    24    12    13    1
    25    12    14   ar
    26    14    15   ar
    27    15    16   ar
    28    16    17   ar
    29    17    18    1
    30     9    10    1
    31     4     5    1
    32     5     6    1
    33     6    19    1
    34    19    20   ar
    35    19    21   ar
    36    35    36   ar
    37    36    37   ar
    38    37    27   ar
    39    36    30   ar
    40     6     1    1
    41    10     7    1
    42    17    11   ar
    43    25    26    1
@<TRIPOS>MOLECULE
*****
 39 43 0 0 0
SMALL
GASTEIGER

@<TRIPOS>ATOM
      1 C         142.4205  138.6411  162.5382 C.3     1  UNL1        0.0080
      2 C         141.8547  138.3130  161.1883 C.3     1  UNL1        0.0177
      3 C         142.3648  139.0219  159.9688 C.3     1  UNL1        0.0721
      4 N         143.4407  140.0589  160.0992 N.3     1  UNL1       -0.2736
      5 C         144.0066  140.3870  161.4490 C.3     1  UNL1        0.0776
      6 C         143.4965  139.6781  162.6686 C.3     1  UNL1        0.0525
      7 C         143.9509  140.7678  158.8797 C.3     1  UNL1        0.0582
      8 C         144.2428  140.3668  157.4641 C.3     1  UNL1        0.0205
      9 C         144.6723  141.7704  157.1549 C.3     1  UNL1        0.0294
     10 C         144.3804  142.1714  158.5706 C.3     1  UNL1        0.0205
     11 C         145.1824  142.4793  155.9355 C.ar    1  UNL1        0.0325
     12 C         144.2161  143.0370  154.9329 C.ar    1  UNL1        0.1383
     13 F         142.7396  142.8857  155.1499 F       1  UNL1       -0.2044
     14 C         144.7262  143.7459  153.7134 C.ar    1  UNL1        0.0295
     15 C         146.2027  143.8972  153.4964 C.ar    1  UNL1        0.0046
     16 C         147.1691  143.3395  154.4990 C.ar    1  UNL1        0.0295
     17 C         146.6589  142.6306  155.7185 C.ar    1  UNL1        0.1383
     18 F         147.6253  142.0729  156.7210 F       1  UNL1       -0.2044
     19 C         144.0623  140.0062  164.0185 C.2     1  UNL1        0.0513
     20 O         143.4195  141.0656  164.8637 O.co2   1  UNL1       -0.5491
     21 O         145.2708  139.2749  164.5230 O.co2   1  UNL1       -0.5491
     22 C         141.9104  137.9322  163.7577 C.3     1  UNL1        0.0033
     23 C         140.5801  137.2402  163.7214 C.3     1  UNL1        0.0339
     24 C         139.3655  137.9200  164.2808 C.3     1  UNL1        0.1350
     25 O         138.6226  137.3030  165.4286 O.3     1  UNL1       -0.3800
     26 H         139.0560  136.4744  165.6863 H       1  UNL1        0.2108
     27 C         140.2600  141.7998  166.3776 C.ar    1  UNL1        0.1388
     28 C         139.7883  143.0964  165.7891 C.ar    1  UNL1        0.0384
     29 C         139.0186  143.0998  164.5017 C.ar    1  UNL1        0.0222
     30 C         138.7204  141.8065  163.8028 C.ar    1  UNL1        0.0814
     31 N         137.9506  141.8099  162.5154 N.ar    1  UNL1       -0.2415
     32 C         137.6525  140.5166  161.8164 C.ar    1  UNL1        0.1281
     33 C         138.1241  139.2199  162.4049 C.ar    1  UNL1        0.1575
     34 F         137.8260  137.9267  161.7059 F       1  UNL1       -0.2028
     35 C         138.8939  139.2166  163.6923 C.ar    1  UNL1        0.0348
     36 C         139.1920  140.5099  164.3912 C.ar    1  UNL1        0.0212
     37 C         139.9618  140.5066  165.6787 C.ar    1  UNL1        0.0382
     38 C         140.2998  141.8042  168.9753 C.3     1  UNL1        0.2525
     39 O         141.0297  141.7965  167.6650 O.3     1  UNL1       -0.4714
@<TRIPOS>UNITY_ATOM_ATTR
20 1
charge -1
@<TRIPOS>BOND
     1    38    39    1
     2    39    27    1
     3    27    28   ar
     4    28    29   ar
     5    29    30   ar
     6    30    31   ar
     7    31    32   ar
     8    32    33   ar
     9    33    34    1
    10    33    35   ar
    11    35    24    1
    12    24    25    1
    13    24    23    1
    14    23    22    1
    15     1    22    1
    16     1     2    1
    17     2     3    1
    18     3     4    1
    19     4     7    1
    20     7     8    1
    21     8     9    1
    22     9    11    1
    23    11    12   ar
    24    12    13    1
    25    12    14   ar
    26    14    15   ar
    27    15    16   ar
    28    16    17   ar
    29    17    18    1
    30     9    10    1
    31     4     5    1
    32     5     6    1
    33     6    19    1
    34    19    20   ar
    35    19    21   ar
    36    35    36   ar
    37    36    37   ar
    38    37    27   ar
    39    36    30   ar
    40     6     1    1
    41    10     7    1
    42    17    11   ar
    43    25    26    1
