@<TRIPOS>MOLECULE
*****
 35 38 0 0 0
SMALL
GASTEIGER

@<TRIPOS>ATOM
      1 C         140.5335  144.7008  157.7730 C.ar    1  UNL1        0.1193
      2 C         139.6616  143.6870  158.4526 C.ar    1  UNL1        0.1437
      3 N         138.4974  143.0879  157.7207 N.pl3   1  UNL1       -0.3415
      4 N         139.9539  143.2721  159.8642 N.ar    1  UNL1       -0.2093
      5 C         141.1181  143.8711  160.5961 C.ar    1  UNL1        0.1841
      6 N         141.9900  144.8850  159.9164 N.ar    1  UNL1       -0.2093
      7 C         141.6977  145.2998  158.5049 C.ar    1  UNL1        0.1437
      8 N         142.5696  146.3137  157.8253 N.pl3   1  UNL1       -0.3415
      9 H         138.3055  143.3602  156.7942 H       1  UNL1        0.1438
     10 H         137.9251  142.4225  158.1667 H       1  UNL1        0.1438
     11 H         143.3337  146.7068  158.3058 H       1  UNL1        0.1438
     12 H         142.3778  146.5860  156.8989 H       1  UNL1        0.1438
     13 C         141.4104  143.4563  162.0077 C.ar    1  UNL1        0.1360
     14 N         140.4515  143.5126  163.1597 N.ar    1  UNL1       -0.2257
     15 C         141.1615  143.0034  164.3790 C.ar    1  UNL1        0.1452
     16 N         142.5592  142.6325  163.9805 N.ar    1  UNL1       -0.2142
     17 N         143.7117  142.0761  164.7628 N.ar    1  UNL1       -0.1624
     18 C         145.0181  141.7996  164.0796 C.ar    1  UNL1        0.1206
     19 C         145.1720  142.0795  162.6140 C.ar    1  UNL1        0.0241
     20 C         144.0195  142.6359  161.8316 C.ar    1  UNL1        0.0225
     21 C         142.7131  142.9124  162.5149 C.ar    1  UNL1        0.1048
     22 C         140.5765  142.8858  165.7552 C.3     1  UNL1        0.0942
     23 C         139.8514  141.6358  166.1577 C.ar    1  UNL1        0.0129
     24 C         138.9433  140.9483  165.1817 C.ar    1  UNL1       -0.0016
     25 C         138.2183  139.6983  165.5840 C.ar    1  UNL1       -0.0002
     26 C         138.4014  139.1359  166.9625 C.ar    1  UNL1        0.0023
     27 C         139.3095  139.8235  167.9385 C.ar    1  UNL1        0.0293
     28 C         140.0346  141.0734  167.5362 C.ar    1  UNL1        0.1366
     29 F         140.9427  141.7609  168.5122 F       1  UNL1       -0.2045
     30 C         139.5641  146.4263  156.0899 C.2     1  UNL1        0.4090
     31 O         139.1795  147.3222  157.2298 O.2     1  UNL1       -0.2258
     32 N         140.2411  145.1156  156.3614 N.am    1  UNL1       -0.2181
     33 C         140.6257  144.2197  155.2215 C.3     1  UNL1        0.1237
     34 C         139.9149  148.0712  154.1095 C.3     1  UNL1        0.2574
     35 O         139.2717  146.8412  154.6783 O.3     1  UNL1       -0.4302
@<TRIPOS>BOND
     1    34    35    1
     2    35    30    1
     3    30    31    2
     4    30    32   am
     5    32    33    1
     6    32     1    1
     7     1     2   ar
     8     2     3    1
     9     2     4   ar
    10     4     5   ar
    11     5    13    1
    12    13    14   ar
    13    14    15   ar
    14    15    22    1
    15    22    23    1
    16    23    24   ar
    17    24    25   ar
    18    25    26   ar
    19    26    27   ar
    20    27    28   ar
    21    28    29    1
    22    15    16   ar
    23    16    17   ar
    24    17    18   ar
    25    18    19   ar
    26    19    20   ar
    27    20    21   ar
    28     5     6   ar
    29     6     7   ar
    30     7     8    1
    31     7     1   ar
    32    21    13   ar
    33    28    23   ar
    34    21    16   ar
    35     3     9    1
    36     3    10    1
    37     8    11    1
    38     8    12    1
@<TRIPOS>MOLECULE
*****
 35 38 0 0 0
SMALL
GASTEIGER

@<TRIPOS>ATOM
      1 C         143.4885  141.9189  158.8269 C.ar    1  UNL1        0.1193
      2 C         142.9735  143.2731  159.2152 C.ar    1  UNL1        0.1437
      3 N         142.9863  144.3943  158.2189 N.pl3   1  UNL1       -0.3415
      4 N         142.4457  143.5062  160.5998 N.ar    1  UNL1       -0.2093
      5 C         142.4329  142.3851  161.5962 C.ar    1  UNL1        0.1841
      6 N         142.9479  141.0307  161.2079 N.ar    1  UNL1       -0.2093
      7 C         143.4757  140.7977  159.8233 C.ar    1  UNL1        0.1437
      8 N         143.9906  139.4434  159.4351 N.pl3   1  UNL1       -0.3415
      9 H         143.3327  144.2414  157.3101 H       1  UNL1        0.1438
     10 H         142.6483  145.2832  158.4737 H       1  UNL1        0.1438
     11 H         143.9822  138.7075  160.0890 H       1  UNL1        0.1438
     12 H         144.3370  139.2904  158.5263 H       1  UNL1        0.1438
     13 C         141.9051  142.6181  162.9808 C.ar    1  UNL1        0.1360
     14 N         142.6074  142.2757  164.2612 N.ar    1  UNL1       -0.2257
     15 C         141.7186  142.6805  165.3998 C.ar    1  UNL1        0.1452
     16 N         140.4671  143.2730  164.8230 N.ar    1  UNL1       -0.2142
     17 N         139.2375  143.8426  165.4660 N.ar    1  UNL1       -0.1624
     18 C         138.1232  144.3737  164.6140 C.ar    1  UNL1        0.1206
     19 C         138.2384  144.3352  163.1189 C.ar    1  UNL1        0.0241
     20 C         139.4680  143.7655  162.4759 C.ar    1  UNL1        0.0225
     21 C         140.5824  143.2344  163.3279 C.ar    1  UNL1        0.1048
     22 C         142.0272  142.5208  166.8590 C.3     1  UNL1        0.0942
     23 C         141.0498  141.8266  167.7607 C.ar    1  UNL1        0.0129
     24 C         140.3606  140.5768  167.2992 C.ar    1  UNL1       -0.0016
     25 C         139.3833  139.8827  168.2008 C.ar    1  UNL1       -0.0002
     26 C         139.0952  140.4384  169.5640 C.ar    1  UNL1        0.0023
     27 C         139.7844  141.6881  170.0255 C.ar    1  UNL1        0.0293
     28 C         140.7617  142.3823  169.1239 C.ar    1  UNL1        0.1366
     29 F         141.4510  143.6321  169.5854 F       1  UNL1       -0.2045
     30 C         145.4124  142.1070  157.0912 C.2     1  UNL1        0.4090
     31 O         146.2808  142.7612  158.1246 O.2     1  UNL1       -0.2258
     32 N         144.0163  141.6858  157.4423 N.am    1  UNL1       -0.2181
     33 C         143.1479  141.0316  156.4089 C.3     1  UNL1        0.1237
     34 C         147.4200  141.8517  155.4619 C.3     1  UNL1        0.2574
     35 O         145.9403  141.8740  155.7066 O.3     1  UNL1       -0.4302
@<TRIPOS>BOND
     1    34    35    1
     2    35    30    1
     3    30    31    2
     4    30    32   am
     5    32    33    1
     6    32     1    1
     7     1     2   ar
     8     2     3    1
     9     2     4   ar
    10     4     5   ar
    11     5    13    1
    12    13    14   ar
    13    14    15   ar
    14    15    22    1
    15    22    23    1
    16    23    24   ar
    17    24    25   ar
    18    25    26   ar
    19    26    27   ar
    20    27    28   ar
    21    28    29    1
    22    15    16   ar
    23    16    17   ar
    24    17    18   ar
    25    18    19   ar
    26    19    20   ar
    27    20    21   ar
    28     5     6   ar
    29     6     7   ar
    30     7     8    1
    31     7     1   ar
    32    21    13   ar
    33    28    23   ar
    34    21    16   ar
    35     3     9    1
    36     3    10    1
    37     8    11    1
    38     8    12    1
@<TRIPOS>MOLECULE
*****
 35 38 0 0 0
SMALL
GASTEIGER

@<TRIPOS>ATOM
      1 C         140.5709  145.1795  156.7360 C.ar    1  UNL1        0.1193
      2 C         139.4011  144.2608  156.9302 C.ar    1  UNL1        0.1437
      3 N         138.5164  143.9172  155.7686 N.pl3   1  UNL1       -0.3415
      4 N         139.1160  143.6857  158.2859 N.ar    1  UNL1       -0.2093
      5 C         140.0006  144.0293  159.4475 C.ar    1  UNL1        0.1841
      6 N         141.1705  144.9480  159.2533 N.ar    1  UNL1       -0.2093
      7 C         141.4555  145.5230  157.8976 C.ar    1  UNL1        0.1437
      8 N         142.6253  146.4417  157.7035 N.pl3   1  UNL1       -0.3415
      9 H         138.7035  144.2947  154.8788 H       1  UNL1        0.1438
     10 H         137.7486  143.3143  155.8961 H       1  UNL1        0.1438
     11 H         143.2059  146.6671  158.4659 H       1  UNL1        0.1438
     12 H         142.8125  146.8191  156.8137 H       1  UNL1        0.1438
     13 C         139.7156  143.4542  160.8032 C.ar    1  UNL1        0.1360
     14 N         138.5199  142.6294  161.1775 N.ar    1  UNL1       -0.2257
     15 C         138.6415  142.2684  162.6283 C.ar    1  UNL1        0.1452
     16 N         139.9124  142.8701  163.1507 N.ar    1  UNL1       -0.2142
     17 N         140.5510  142.8453  164.5078 N.ar    1  UNL1       -0.1624
     18 C         141.8533  143.5533  164.7368 C.ar    1  UNL1        0.1206
     19 C         142.5171  144.2862  163.6089 C.ar    1  UNL1        0.0241
     20 C         141.8786  144.3110  162.2518 C.ar    1  UNL1        0.0225
     21 C         140.5762  143.6029  162.0227 C.ar    1  UNL1        0.1048
     22 C         137.6640  141.4496  163.4181 C.3     1  UNL1        0.0942
     23 C         138.0882  140.1364  164.0061 C.ar    1  UNL1        0.0129
     24 C         138.1061  139.9520  165.4946 C.ar    1  UNL1       -0.0016
     25 C         138.5303  138.6389  166.0827 C.ar    1  UNL1       -0.0002
     26 C         138.9366  137.5102  165.1822 C.ar    1  UNL1        0.0023
     27 C         138.9187  137.6946  163.6937 C.ar    1  UNL1        0.0293
     28 C         138.4945  139.0077  163.1056 C.ar    1  UNL1        0.1366
     29 F         138.4765  139.1921  161.6171 F       1  UNL1       -0.2045
     30 C         140.1629  147.0087  154.9369 C.2     1  UNL1        0.4090
     31 O         139.1849  147.6879  155.8491 O.2     1  UNL1       -0.2258
     32 N         140.8559  145.7545  155.3803 N.am    1  UNL1       -0.2181
     33 C         141.8340  145.0754  154.4680 C.3     1  UNL1        0.1237
     34 C         140.4791  149.0712  153.3887 C.3     1  UNL1        0.2574
     35 O         140.4479  147.5839  153.5811 O.3     1  UNL1       -0.4302
@<TRIPOS>BOND
     1    34    35    1
     2    35    30    1
     3    30    31    2
     4    30    32   am
     5    32    33    1
     6    32     1    1
     7     1     2   ar
     8     2     3    1
     9     2     4   ar
    10     4     5   ar
    11     5    13    1
    12    13    14   ar
    13    14    15   ar
    14    15    22    1
    15    22    23    1
    16    23    24   ar
    17    24    25   ar
    18    25    26   ar
    19    26    27   ar
    20    27    28   ar
    21    28    29    1
    22    15    16   ar
    23    16    17   ar
    24    17    18   ar
    25    18    19   ar
    26    19    20   ar
    27    20    21   ar
    28     5     6   ar
    29     6     7   ar
    30     7     8    1
    31     7     1   ar
    32    21    13   ar
    33    28    23   ar
    34    21    16   ar
    35     3     9    1
    36     3    10    1
    37     8    11    1
    38     8    12    1
@<TRIPOS>MOLECULE
*****
 35 38 0 0 0
SMALL
GASTEIGER

@<TRIPOS>ATOM
      1 C         144.4195  141.6258  156.5118 C.ar    1  UNL1        0.1193
      2 C         143.5535  142.4688  157.4002 C.ar    1  UNL1        0.1437
      3 N         143.3055  143.9082  157.0588 N.pl3   1  UNL1       -0.3415
      4 N         142.9355  141.8725  158.6300 N.ar    1  UNL1       -0.2093
      5 C         143.1834  140.4331  158.9714 C.ar    1  UNL1        0.1841
      6 N         144.0494  139.5900  158.0830 N.ar    1  UNL1       -0.2093
      7 C         144.6674  140.1863  156.8532 C.ar    1  UNL1        0.1437
      8 N         145.5334  139.3432  155.9648 N.pl3   1  UNL1       -0.3415
      9 H         143.7112  144.2997  156.2517 H       1  UNL1        0.1438
     10 H         142.7372  144.4616  157.6419 H       1  UNL1        0.1438
     11 H         145.6961  138.3985  156.1889 H       1  UNL1        0.1438
     12 H         145.9390  139.7346  155.1577 H       1  UNL1        0.1438
     13 C         142.5654  139.8367  160.2012 C.ar    1  UNL1        0.1360
     14 N         141.2206  139.1770  160.2809 N.ar    1  UNL1       -0.2257
     15 C         141.0078  138.7280  161.6962 C.ar    1  UNL1        0.1452
     16 N         142.2210  139.1101  162.4912 N.ar    1  UNL1       -0.2142
     17 N         142.5735  138.9227  163.9371 N.ar    1  UNL1       -0.1624
     18 C         143.8887  139.4205  164.4590 C.ar    1  UNL1        0.1206
     19 C         144.8514  140.1057  163.5350 C.ar    1  UNL1        0.0241
     20 C         144.4988  140.2932  162.0892 C.ar    1  UNL1        0.0225
     21 C         143.1837  139.7954  161.5673 C.ar    1  UNL1        0.1048
     22 C         139.7947  138.0209  162.2239 C.3     1  UNL1        0.0942
     23 C         139.2007  138.4304  163.5391 C.ar    1  UNL1        0.0129
     24 C         139.0680  137.4277  164.6468 C.ar    1  UNL1       -0.0016
     25 C         138.4741  137.8371  165.9619 C.ar    1  UNL1       -0.0002
     26 C         138.0127  139.2493  166.1693 C.ar    1  UNL1        0.0023
     27 C         138.1453  140.2519  165.0615 C.ar    1  UNL1        0.0293
     28 C         138.7393  139.8425  163.7464 C.ar    1  UNL1        0.1366
     29 F         138.8719  140.8452  162.6387 F       1  UNL1       -0.2045
     30 C         146.4287  142.7802  155.3371 C.2     1  UNL1        0.4090
     31 O         147.2018  142.7420  156.6219 O.2     1  UNL1       -0.2258
     32 N         145.0375  142.2221  155.2820 N.am    1  UNL1       -0.2181
     33 C         144.2643  142.2603  153.9972 C.3     1  UNL1        0.1237
     34 C         146.9503  144.8529  153.8598 C.3     1  UNL1        0.2574
     35 O         147.0468  143.3766  154.1073 O.3     1  UNL1       -0.4302
@<TRIPOS>BOND
     1    34    35    1
     2    35    30    1
     3    30    31    2
     4    30    32   am
     5    32    33    1
     6    32     1    1
     7     1     2   ar
     8     2     3    1
     9     2     4   ar
    10     4     5   ar
    11     5    13    1
    12    13    14   ar
    13    14    15   ar
    14    15    22    1
    15    22    23    1
    16    23    24   ar
    17    24    25   ar
    18    25    26   ar
    19    26    27   ar
    20    27    28   ar
    21    28    29    1
    22    15    16   ar
    23    16    17   ar
    24    17    18   ar
    25    18    19   ar
    26    19    20   ar
    27    20    21   ar
    28     5     6   ar
    29     6     7   ar
    30     7     8    1
    31     7     1   ar
    32    21    13   ar
    33    28    23   ar
    34    21    16   ar
    35     3     9    1
    36     3    10    1
    37     8    11    1
    38     8    12    1
@<TRIPOS>MOLECULE
*****
 35 38 0 0 0
SMALL
GASTEIGER

@<TRIPOS>ATOM
      1 C         140.3016  145.1142  156.5525 C.ar    1  UNL1        0.1193
      2 C         141.0697  145.2346  157.8352 C.ar    1  UNL1        0.1437
      3 N         142.2362  146.1733  157.9256 N.pl3   1  UNL1       -0.3415
      4 N         140.6714  144.4162  159.0276 N.ar    1  UNL1       -0.2093
      5 C         139.5050  143.4775  158.9373 C.ar    1  UNL1        0.1841
      6 N         138.7368  143.3571  157.6544 N.ar    1  UNL1       -0.2093
      7 C         139.1352  144.1754  156.4621 C.ar    1  UNL1        0.1437
      8 N         138.3670  144.0550  155.1794 N.pl3   1  UNL1       -0.3415
      9 H         142.4976  146.7104  157.1430 H       1  UNL1        0.1438
     10 H         142.7404  146.2523  158.7675 H       1  UNL1        0.1438
     11 H         137.6014  143.4389  155.1201 H       1  UNL1        0.1438
     12 H         138.6284  144.5920  154.3968 H       1  UNL1        0.1438
     13 C         139.1067  142.6592  160.1296 C.ar    1  UNL1        0.1360
     14 N         138.7985  141.1913  160.1283 N.ar    1  UNL1       -0.2257
     15 C         138.4480  140.7900  161.5305 C.ar    1  UNL1        0.1452
     16 N         138.5396  142.0100  162.3984 N.ar    1  UNL1       -0.2142
     17 N         138.3050  142.2182  163.8652 N.ar    1  UNL1       -0.1624
     18 C         138.4774  143.5817  164.4662 C.ar    1  UNL1        0.1206
     19 C         138.8845  144.7369  163.6004 C.ar    1  UNL1        0.0241
     20 C         139.1192  144.5287  162.1336 C.ar    1  UNL1        0.0225
     21 C         138.9468  143.1653  161.5326 C.ar    1  UNL1        0.1048
     22 C         138.0719  139.4109  161.9851 C.3     1  UNL1        0.0942
     23 C         139.0136  138.6221  162.8460 C.ar    1  UNL1        0.0129
     24 C         138.7334  138.4599  164.3107 C.ar    1  UNL1       -0.0016
     25 C         139.6749  137.6712  165.1716 C.ar    1  UNL1       -0.0002
     26 C         140.8968  137.0446  164.5678 C.ar    1  UNL1        0.0023
     27 C         141.1770  137.2068  163.1032 C.ar    1  UNL1        0.0293
     28 C         140.2354  137.9955  162.2423 C.ar    1  UNL1        0.1366
     29 F         140.5156  138.1577  160.7776 F       1  UNL1       -0.2045
     30 C         140.0370  147.2529  155.1015 C.2     1  UNL1        0.4090
     31 O         138.9758  147.7551  156.0351 O.2     1  UNL1       -0.2258
     32 N         140.6999  145.9325  155.3601 N.am    1  UNL1       -0.2181
     33 C         141.7611  145.4303  154.4265 C.3     1  UNL1        0.1237
     34 C         140.1022  149.5330  153.8575 C.3     1  UNL1        0.2574
     35 O         140.4353  148.0713  153.9091 O.3     1  UNL1       -0.4302
@<TRIPOS>BOND
     1    34    35    1
     2    35    30    1
     3    30    31    2
     4    30    32   am
     5    32    33    1
     6    32     1    1
     7     1     2   ar
     8     2     3    1
     9     2     4   ar
    10     4     5   ar
    11     5    13    1
    12    13    14   ar
    13    14    15   ar
    14    15    22    1
    15    22    23    1
    16    23    24   ar
    17    24    25   ar
    18    25    26   ar
    19    26    27   ar
    20    27    28   ar
    21    28    29    1
    22    15    16   ar
    23    16    17   ar
    24    17    18   ar
    25    18    19   ar
    26    19    20   ar
    27    20    21   ar
    28     5     6   ar
    29     6     7   ar
    30     7     8    1
    31     7     1   ar
    32    21    13   ar
    33    28    23   ar
    34    21    16   ar
    35     3     9    1
    36     3    10    1
    37     8    11    1
    38     8    12    1
@<TRIPOS>MOLECULE
*****
 35 38 0 0 0
SMALL
GASTEIGER

@<TRIPOS>ATOM
      1 C         142.4893  139.4995  159.6087 C.ar    1  UNL1        0.1193
      2 C         143.2729  139.2800  160.8688 C.ar    1  UNL1        0.1437
      3 N         144.5716  138.5307  160.8234 N.pl3   1  UNL1       -0.3415
      4 N         142.7578  139.8097  162.1742 N.ar    1  UNL1       -0.2093
      5 C         141.4592  140.5589  162.2197 C.ar    1  UNL1        0.1841
      6 N         140.6756  140.7785  160.9596 N.ar    1  UNL1       -0.2093
      7 C         141.1906  140.2488  159.6541 C.ar    1  UNL1        0.1437
      8 N         140.4069  140.4684  158.3942 N.pl3   1  UNL1       -0.3415
      9 H         144.9096  138.1831  159.9666 H       1  UNL1        0.1438
     10 H         145.0859  138.3866  161.6504 H       1  UNL1        0.1438
     11 H         139.5546  140.9601  158.4240 H       1  UNL1        0.1438
     12 H         140.7449  140.1207  157.5373 H       1  UNL1        0.1438
     13 C         140.9442  141.0886  163.5251 C.ar    1  UNL1        0.1360
     14 N         140.9873  140.3760  164.8443 N.ar    1  UNL1       -0.2257
     15 C         140.3654  141.2709  165.8750 C.ar    1  UNL1        0.1452
     16 N         139.9378  142.5365  165.1928 N.ar    1  UNL1       -0.2142
     17 N         139.2691  143.7770  165.7064 N.ar    1  UNL1       -0.1624
     18 C         138.9580  144.9048  164.7677 C.ar    1  UNL1        0.1206
     19 C         139.3158  144.7921  163.3153 C.ar    1  UNL1        0.0241
     20 C         139.9845  143.5517  162.8017 C.ar    1  UNL1        0.0225
     21 C         140.2956  142.4239  163.7405 C.ar    1  UNL1        0.1048
     22 C         140.1999  140.9555  167.3321 C.3     1  UNL1        0.0942
     23 C         141.0606  141.6426  168.3507 C.ar    1  UNL1        0.0129
     24 C         140.5441  142.8482  169.0785 C.ar    1  UNL1       -0.0016
     25 C         141.4046  143.5353  170.0969 C.ar    1  UNL1       -0.0002
     26 C         142.7818  143.0167  170.3876 C.ar    1  UNL1        0.0023
     27 C         143.2984  141.8111  169.6597 C.ar    1  UNL1        0.0293
     28 C         142.4378  141.1241  168.6413 C.ar    1  UNL1        0.1366
     29 F         142.9543  139.9185  167.9135 F       1  UNL1       -0.2045
     30 C         143.9178  139.8102  157.4611 C.2     1  UNL1        0.4090
     31 O         144.3162  141.1801  157.9242 O.2     1  UNL1       -0.2258
     32 N         143.0043  138.9698  158.3033 N.am    1  UNL1       -0.2181
     33 C         142.6059  137.5999  157.8402 C.3     1  UNL1        0.1237
     34 C         145.5100  140.0200  155.4187 C.3     1  UNL1        0.2574
     35 O         144.4329  139.2805  156.1556 O.3     1  UNL1       -0.4302
@<TRIPOS>BOND
     1    34    35    1
     2    35    30    1
     3    30    31    2
     4    30    32   am
     5    32    33    1
     6    32     1    1
     7     1     2   ar
     8     2     3    1
     9     2     4   ar
    10     4     5   ar
    11     5    13    1
    12    13    14   ar
    13    14    15   ar
    14    15    22    1
    15    22    23    1
    16    23    24   ar
    17    24    25   ar
    18    25    26   ar
    19    26    27   ar
    20    27    28   ar
    21    28    29    1
    22    15    16   ar
    23    16    17   ar
    24    17    18   ar
    25    18    19   ar
    26    19    20   ar
    27    20    21   ar
    28     5     6   ar
    29     6     7   ar
    30     7     8    1
    31     7     1   ar
    32    21    13   ar
    33    28    23   ar
    34    21    16   ar
    35     3     9    1
    36     3    10    1
    37     8    11    1
    38     8    12    1
@<TRIPOS>MOLECULE
*****
 35 38 0 0 0
SMALL
GASTEIGER

@<TRIPOS>ATOM
      1 C         140.2934  145.0988  156.4376 C.ar    1  UNL1        0.1193
      2 C         139.1451  144.1436  156.2995 C.ar    1  UNL1        0.1437
      3 N         138.4198  144.0269  154.9917 N.pl3   1  UNL1       -0.3415
      4 N         138.7221  143.3052  157.4692 N.ar    1  UNL1       -0.2093
      5 C         139.4473  143.4219  158.7769 C.ar    1  UNL1        0.1841
      6 N         140.5956  144.3771  158.9151 N.ar    1  UNL1       -0.2093
      7 C         141.0186  145.2155  157.7454 C.ar    1  UNL1        0.1437
      8 N         142.1669  146.1707  157.8836 N.pl3   1  UNL1       -0.3415
      9 H         138.6975  144.5772  154.2240 H       1  UNL1        0.1438
     10 H         137.6662  143.3999  154.9010 H       1  UNL1        0.1438
     11 H         142.6429  146.2473  158.7420 H       1  UNL1        0.1438
     12 H         142.4446  146.7210  157.1160 H       1  UNL1        0.1438
     13 C         139.0243  142.5834  159.9466 C.ar    1  UNL1        0.1360
     14 N         138.4050  143.0891  161.2158 N.ar    1  UNL1       -0.2257
     15 C         138.1444  141.9103  162.1060 C.ar    1  UNL1        0.1452
     16 N         138.6025  140.6761  161.3870 N.ar    1  UNL1       -0.2142
     17 N         138.5948  139.2272  161.7751 N.ar    1  UNL1       -0.1624
     18 C         139.1309  138.1944  160.8286 C.ar    1  UNL1        0.1206
     19 C         139.6747  138.6105  159.4941 C.ar    1  UNL1        0.0241
     20 C         139.6825  140.0593  159.1059 C.ar    1  UNL1        0.0225
     21 C         139.1464  141.0922  160.0524 C.ar    1  UNL1        0.1048
     22 C         137.5329  141.9573  163.4749 C.3     1  UNL1        0.0942
     23 C         138.3270  141.5113  164.6668 C.ar    1  UNL1        0.0129
     24 C         138.1309  140.1332  165.2256 C.ar    1  UNL1       -0.0016
     25 C         138.9250  139.6872  166.4175 C.ar    1  UNL1       -0.0002
     26 C         139.9151  140.6194  167.0505 C.ar    1  UNL1        0.0023
     27 C         140.1111  141.9975  166.4917 C.ar    1  UNL1        0.0293
     28 C         139.3171  142.4435  165.2999 C.ar    1  UNL1        0.1366
     29 F         139.5131  143.8217  164.7410 F       1  UNL1       -0.2045
     30 C         140.0477  147.2546  155.0088 C.2     1  UNL1        0.4090
     31 O         138.9560  147.7337  155.9192 O.2     1  UNL1       -0.2258
     32 N         140.7163  145.9372  155.2680 N.am    1  UNL1       -0.2181
     33 C         141.8080  145.4582  154.3575 C.3     1  UNL1        0.1237
     34 C         140.0150  149.5184  153.7342 C.3     1  UNL1        0.2574
     35 O         140.4706  148.0932  153.8391 O.3     1  UNL1       -0.4302
@<TRIPOS>BOND
     1    34    35    1
     2    35    30    1
     3    30    31    2
     4    30    32   am
     5    32    33    1
     6    32     1    1
     7     1     2   ar
     8     2     3    1
     9     2     4   ar
    10     4     5   ar
    11     5    13    1
    12    13    14   ar
    13    14    15   ar
    14    15    22    1
    15    22    23    1
    16    23    24   ar
    17    24    25   ar
    18    25    26   ar
    19    26    27   ar
    20    27    28   ar
    21    28    29    1
    22    15    16   ar
    23    16    17   ar
    24    17    18   ar
    25    18    19   ar
    26    19    20   ar
    27    20    21   ar
    28     5     6   ar
    29     6     7   ar
    30     7     8    1
    31     7     1   ar
    32    21    13   ar
    33    28    23   ar
    34    21    16   ar
    35     3     9    1
    36     3    10    1
    37     8    11    1
    38     8    12    1
@<TRIPOS>MOLECULE
*****
 35 38 0 0 0
SMALL
GASTEIGER

@<TRIPOS>ATOM
      1 C         141.7932  136.8170  155.7388 C.ar    1  UNL1        0.1193
      2 C         140.7298  137.2998  156.6802 C.ar    1  UNL1        0.1437
      3 N         139.3000  136.9008  156.4648 N.pl3   1  UNL1       -0.3415
      4 N         141.0964  138.1817  157.8370 N.ar    1  UNL1       -0.2093
      5 C         142.5261  138.5807  158.0524 C.ar    1  UNL1        0.1841
      6 N         143.5895  138.0978  157.1109 N.ar    1  UNL1       -0.2093
      7 C         143.2230  137.2160  155.9542 C.ar    1  UNL1        0.1437
      8 N         144.2863  136.7332  155.0129 N.pl3   1  UNL1       -0.3415
      9 H         139.0595  136.3221  155.7056 H       1  UNL1        0.1438
     10 H         138.6021  137.2177  157.0827 H       1  UNL1        0.1438
     11 H         145.2248  136.9951  155.1543 H       1  UNL1        0.1438
     12 H         144.0458  136.1545  154.2536 H       1  UNL1        0.1438
     13 C         142.8926  139.4625  159.2091 C.ar    1  UNL1        0.1360
     14 N         143.5083  140.8272  159.1170 N.ar    1  UNL1       -0.2257
     15 C         143.7040  141.3425  160.5121 C.ar    1  UNL1        0.1452
     16 N         143.2092  140.2963  161.4664 N.ar    1  UNL1       -0.2142
     17 N         143.1504  140.2516  162.9645 N.ar    1  UNL1       -0.1624
     18 C         142.5902  139.0449  163.6574 C.ar    1  UNL1        0.1206
     19 C         142.0888  137.8830  162.8521 C.ar    1  UNL1        0.0241
     20 C         142.1475  137.9277  161.3540 C.ar    1  UNL1        0.0225
     21 C         142.7077  139.1344  160.6611 C.ar    1  UNL1        0.1048
     22 C         144.2913  142.6708  160.8871 C.3     1  UNL1        0.0942
     23 C         143.5486  143.5835  161.8174 C.ar    1  UNL1        0.0129
     24 C         144.2149  144.0890  163.0626 C.ar    1  UNL1       -0.0016
     25 C         143.4723  145.0017  163.9930 C.ar    1  UNL1       -0.0002
     26 C         142.0634  145.4089  163.6780 C.ar    1  UNL1        0.0023
     27 C         141.3972  144.9034  162.4328 C.ar    1  UNL1        0.0293
     28 C         142.1397  143.9907  161.5025 C.ar    1  UNL1        0.1366
     29 F         141.4735  143.4853  160.2572 F       1  UNL1       -0.2045
     30 C         141.4972  134.4437  154.7243 C.2     1  UNL1        0.4090
     31 O         141.9341  133.8339  156.0232 O.2     1  UNL1       -0.2258
     32 N         141.4266  135.9352  154.5820 N.am    1  UNL1       -0.2181
     33 C         140.9896  136.5450  153.2831 C.3     1  UNL1        0.1237
     34 C         142.1550  132.6425  152.9712 C.3     1  UNL1        0.2574
     35 O         141.1307  133.5618  153.5676 O.3     1  UNL1       -0.4302
@<TRIPOS>BOND
     1    34    35    1
     2    35    30    1
     3    30    31    2
     4    30    32   am
     5    32    33    1
     6    32     1    1
     7     1     2   ar
     8     2     3    1
     9     2     4   ar
    10     4     5   ar
    11     5    13    1
    12    13    14   ar
    13    14    15   ar
    14    15    22    1
    15    22    23    1
    16    23    24   ar
    17    24    25   ar
    18    25    26   ar
    19    26    27   ar
    20    27    28   ar
    21    28    29    1
    22    15    16   ar
    23    16    17   ar
    24    17    18   ar
    25    18    19   ar
    26    19    20   ar
    27    20    21   ar
    28     5     6   ar
    29     6     7   ar
    30     7     8    1
    31     7     1   ar
    32    21    13   ar
    33    28    23   ar
    34    21    16   ar
    35     3     9    1
    36     3    10    1
    37     8    11    1
    38     8    12    1
@<TRIPOS>MOLECULE
*****
 35 38 0 0 0
SMALL
GASTEIGER

@<TRIPOS>ATOM
      1 C         140.9870  138.1103  156.4847 C.ar    1  UNL1        0.1193
      2 C         139.5361  138.3597  156.7722 C.ar    1  UNL1        0.1437
      3 N         138.5365  138.3444  155.6539 N.pl3   1  UNL1       -0.3415
      4 N         139.0848  138.6244  158.1780 N.ar    1  UNL1       -0.2093
      5 C         140.0843  138.6398  159.2963 C.ar    1  UNL1        0.1841
      6 N         141.5353  138.3904  159.0087 N.ar    1  UNL1       -0.2093
      7 C         141.9866  138.1257  157.6029 C.ar    1  UNL1        0.1437
      8 N         143.4375  137.8763  157.3155 N.pl3   1  UNL1       -0.3415
      9 H         138.8327  138.1706  154.7313 H       1  UNL1        0.1438
     10 H         137.5842  138.5080  155.8426 H       1  UNL1        0.1438
     11 H         144.0935  137.8864  158.0495 H       1  UNL1        0.1438
     12 H         143.7337  137.7026  156.3928 H       1  UNL1        0.1438
     13 C         139.6330  138.9045  160.7021 C.ar    1  UNL1        0.1360
     14 N         139.7230  137.9458  161.8522 N.ar    1  UNL1       -0.2257
     15 C         139.1581  138.6232  163.0655 C.ar    1  UNL1        0.1452
     16 N         138.7191  140.0005  162.6652 N.ar    1  UNL1       -0.2142
     17 N         138.0899  141.1188  163.4420 N.ar    1  UNL1       -0.1624
     18 C         137.7543  142.4110  162.7582 C.ar    1  UNL1        0.1206
     19 C         138.0479  142.5848  161.2975 C.ar    1  UNL1        0.0241
     20 C         138.6770  141.4665  160.5207 C.ar    1  UNL1        0.0225
     21 C         139.0126  140.1744  161.2045 C.ar    1  UNL1        0.1048
     22 C         139.0510  138.0278  164.4381 C.3     1  UNL1        0.0942
     23 C         139.6659  138.7321  165.6112 C.ar    1  UNL1        0.0129
     24 C         141.1433  138.9902  165.6409 C.ar    1  UNL1       -0.0016
     25 C         141.7582  139.6944  166.8139 C.ar    1  UNL1       -0.0002
     26 C         140.8957  140.1406  167.9572 C.ar    1  UNL1        0.0023
     27 C         139.4184  139.8825  167.9274 C.ar    1  UNL1        0.0293
     28 C         138.8034  139.1783  166.7544 C.ar    1  UNL1        0.1366
     29 F         137.3261  138.9202  166.7247 F       1  UNL1       -0.2045
     30 C         141.4562  136.4426  154.5486 C.2     1  UNL1        0.4090
     31 O         141.0230  135.3043  155.4242 O.2     1  UNL1       -0.2258
     32 N         141.4383  137.8456  155.0788 N.am    1  UNL1       -0.2181
     33 C         141.8715  138.9839  154.2033 C.3     1  UNL1        0.1237
     34 C         141.7342  134.8136  152.5438 C.3     1  UNL1        0.2574
     35 O         141.9075  136.1778  153.1428 O.3     1  UNL1       -0.4302
@<TRIPOS>BOND
     1    34    35    1
     2    35    30    1
     3    30    31    2
     4    30    32   am
     5    32    33    1
     6    32     1    1
     7     1     2   ar
     8     2     3    1
     9     2     4   ar
    10     4     5   ar
    11     5    13    1
    12    13    14   ar
    13    14    15   ar
    14    15    22    1
    15    22    23    1
    16    23    24   ar
    17    24    25   ar
    18    25    26   ar
    19    26    27   ar
    20    27    28   ar
    21    28    29    1
    22    15    16   ar
    23    16    17   ar
    24    17    18   ar
    25    18    19   ar
    26    19    20   ar
    27    20    21   ar
    28     5     6   ar
    29     6     7   ar
    30     7     8    1
    31     7     1   ar
    32    21    13   ar
    33    28    23   ar
    34    21    16   ar
    35     3     9    1
    36     3    10    1
    37     8    11    1
    38     8    12    1
