@<TRIPOS>MOLECULE
*****
 30 33 0 0 0
SMALL
GASTEIGER

@<TRIPOS>ATOM
      1 C         140.9021  140.0679  166.9641 C.ar    1  UNL1        0.1431
      2 C         140.1559  140.3612  168.2318 C.ar    1  UNL1        0.0377
      3 C         140.7350  141.3075  169.2413 C.ar    1  UNL1        0.0134
      4 C         142.0604  141.9605  168.9831 C.ar    1  UNL1        0.0688
      5 C         142.8068  141.6672  167.7154 C.ar    1  UNL1        0.0178
      6 C         142.2277  140.7209  166.7059 C.ar    1  UNL1        0.0881
      7 C         142.9740  140.4277  165.4383 C.2     1  UNL1        0.2525
      8 O         143.9947  139.3290  165.4060 O.2     1  UNL1       -0.2698
      9 N         142.6997  141.2331  164.2029 N.am    1  UNL1       -0.2660
     10 C         141.7130  142.3566  164.0840 C.3     1  UNL1        0.1236
     11 C         141.7674  142.8743  162.6772 C.ar    1  UNL1        0.0334
     12 C         141.1913  143.8886  161.7343 C.ar    1  UNL1        0.0936
     13 N         141.8554  143.7119  160.4009 N.ar    1  UNL1       -0.2519
     14 N         142.8421  142.5883  160.5199 N.ar    1  UNL1       -0.1723
     15 C         142.7877  142.0706  161.9267 C.ar    1  UNL1        0.0977
     16 C         143.3639  141.0563  162.8697 C.3     1  UNL1        0.1414
     17 C         141.5811  144.5172  159.1656 C.3     1  UNL1        0.1052
     18 C         142.4153  144.5314  157.9190 C.3     1  UNL1        0.0244
     19 C         141.7742  145.4728  156.9429 C.3     1  UNL1        0.0021
     20 C         140.5438  146.0405  157.5862 C.3     1  UNL1        0.0021
     21 C         140.4244  145.4499  158.9599 C.3     1  UNL1        0.0244
     22 C         142.6396  142.9069  169.9927 C.1     1  UNL1        0.1004
     23 N         143.2187  143.8532  171.0022 N.1     1  UNL1       -0.1908
     24 O         140.3230  139.1216  165.9546 O.3     1  UNL1       -0.4702
     25 C         138.1104  140.1091  165.0170 C.3     1  UNL1        0.0566
     26 C         138.8365  139.0362  165.7730 C.3     1  UNL1        0.2599
     27 C         138.0762  137.8778  166.3474 C.3     1  UNL1        0.4340
     28 F         137.3158  136.7194  166.9219 F       1  UNL1       -0.1664
     29 F         137.3394  138.8136  167.2594 F       1  UNL1       -0.1664
     30 F         138.8129  136.9420  165.4355 F       1  UNL1       -0.1664
@<TRIPOS>BOND
     1    26    25    1
     2    26    24    1
     3    24     1    1
     4     1     2   ar
     5     2     3   ar
     6     3     4   ar
     7     4    22    1
     8    22    23    3
     9     4     5   ar
    10     5     6   ar
    11     6     7    1
    12     7     8    2
    13     7     9   am
    14     9    10    1
    15    10    11    1
    16    11    12   ar
    17    12    13   ar
    18    13    17    1
    19    17    18    1
    20    18    19    1
    21    19    20    1
    22    20    21    1
    23    13    14   ar
    24    14    15   ar
    25    15    16    1
    26    26    27    1
    27    27    28    1
    28    27    29    1
    29    27    30    1
    30     6     1   ar
    31    16     9    1
    32    15    11   ar
    33    21    17    1
@<TRIPOS>MOLECULE
*****
 30 33 0 0 0
SMALL
GASTEIGER

@<TRIPOS>ATOM
      1 C         139.8498  141.6095  164.6447 C.ar    1  UNL1        0.1431
      2 C         140.1665  141.3906  166.0945 C.ar    1  UNL1        0.0377
      3 C         139.4272  140.3438  166.8740 C.ar    1  UNL1        0.0134
      4 C         138.3712  139.5157  166.2037 C.ar    1  UNL1        0.0688
      5 C         138.0546  139.7346  164.7539 C.ar    1  UNL1        0.0178
      6 C         138.7938  140.7814  163.9744 C.ar    1  UNL1        0.0881
      7 C         138.4770  141.0002  162.5246 C.2     1  UNL1        0.2525
      8 O         137.3127  141.8609  162.1330 O.2     1  UNL1       -0.2698
      9 N         139.3247  140.3583  161.4666 N.am    1  UNL1       -0.2660
     10 C         140.5147  139.4768  161.7048 C.3     1  UNL1        0.1236
     11 C         141.0565  139.0589  160.3699 C.ar    1  UNL1        0.0334
     12 C         142.1269  138.2559  159.6922 C.ar    1  UNL1        0.0936
     13 N         141.9333  138.3827  158.2101 N.ar    1  UNL1       -0.2519
     14 N         140.7432  139.2643  157.9719 N.ar    1  UNL1       -0.1723
     15 C         140.2014  139.6822  159.3068 C.ar    1  UNL1        0.0977
     16 C         139.1310  140.4853  159.9845 C.3     1  UNL1        0.1414
     17 C         142.7809  137.7409  157.1521 C.3     1  UNL1        0.1052
     18 C         143.5313  138.4573  156.0686 C.3     1  UNL1        0.0244
     19 C         144.2411  137.4290  155.2386 C.3     1  UNL1        0.0021
     20 C         143.9294  136.0772  155.8090 C.3     1  UNL1        0.0021
     21 C         143.0270  136.2699  156.9916 C.3     1  UNL1        0.0244
     22 C         137.6320  138.4689  166.9832 C.1     1  UNL1        0.1004
     23 N         136.8928  137.4220  167.7627 N.1     1  UNL1       -0.1908
     24 O         140.5890  142.6563  163.8652 O.3     1  UNL1       -0.4702
     25 C         141.2264  145.1632  163.6215 C.3     1  UNL1        0.0566
     26 C         140.2518  144.1063  164.0494 C.3     1  UNL1        0.2599
     27 C         138.9400  144.4992  164.6616 C.3     1  UNL1        0.4340
     28 F         137.6282  144.8922  165.2736 F       1  UNL1       -0.1664
     29 F         138.3117  144.5231  163.2997 F       1  UNL1       -0.1664
     30 F         139.5683  144.4754  166.0234 F       1  UNL1       -0.1664
@<TRIPOS>BOND
     1    26    25    1
     2    26    24    1
     3    24     1    1
     4     1     2   ar
     5     2     3   ar
     6     3     4   ar
     7     4    22    1
     8    22    23    3
     9     4     5   ar
    10     5     6   ar
    11     6     7    1
    12     7     8    2
    13     7     9   am
    14     9    10    1
    15    10    11    1
    16    11    12   ar
    17    12    13   ar
    18    13    17    1
    19    17    18    1
    20    18    19    1
    21    19    20    1
    22    20    21    1
    23    13    14   ar
    24    14    15   ar
    25    15    16    1
    26    26    27    1
    27    27    28    1
    28    27    29    1
    29    27    30    1
    30     6     1   ar
    31    16     9    1
    32    15    11   ar
    33    21    17    1
@<TRIPOS>MOLECULE
*****
 30 33 0 0 0
SMALL
GASTEIGER

@<TRIPOS>ATOM
      1 C         140.8108  139.9719  167.1683 C.ar    1  UNL1        0.1431
      2 C         139.9273  140.7449  168.1020 C.ar    1  UNL1        0.0377
      3 C         140.5298  141.7190  169.0705 C.ar    1  UNL1        0.0134
      4 C         142.0159  141.9201  169.1054 C.ar    1  UNL1        0.0688
      5 C         142.8994  141.1471  168.1716 C.ar    1  UNL1        0.0178
      6 C         142.2969  140.1730  167.2030 C.ar    1  UNL1        0.0881
      7 C         143.1804  139.4000  166.2693 C.2     1  UNL1        0.2525
      8 O         143.9463  138.2124  166.7724 O.2     1  UNL1       -0.2698
      9 N         143.2981  139.8146  164.8326 N.am    1  UNL1       -0.2660
     10 C         142.5968  140.9740  164.1892 C.3     1  UNL1        0.1236
     11 C         143.0031  141.0184  162.7460 C.ar    1  UNL1        0.0334
     12 C         142.8207  141.7625  161.4564 C.ar    1  UNL1        0.0936
     13 N         143.6603  141.0904  160.4106 N.ar    1  UNL1       -0.2519
     14 N         144.3616  139.9309  161.0541 N.ar    1  UNL1       -0.1723
     15 C         143.9554  139.8865  162.4973 C.ar    1  UNL1        0.0977
     16 C         144.1377  139.1424  163.7870 C.3     1  UNL1        0.1414
     17 C         143.7780  141.5050  158.9740 C.3     1  UNL1        0.1052
     18 C         143.3932  142.8394  158.4069 C.3     1  UNL1        0.0244
     19 C         143.6785  142.8170  156.9345 C.3     1  UNL1        0.0021
     20 C         144.2397  141.4689  156.5914 C.3     1  UNL1        0.0021
     21 C         144.3012  140.6580  157.8519 C.3     1  UNL1        0.0244
     22 C         142.6184  142.8942  170.0739 C.1     1  UNL1        0.1004
     23 N         143.2209  143.8683  171.0425 N.1     1  UNL1       -0.1908
     24 O         140.2083  138.9978  166.1997 O.3     1  UNL1       -0.4702
     25 C         138.0755  140.0347  165.1385 C.3     1  UNL1        0.0566
     26 C         138.7243  138.9774  165.9818 C.3     1  UNL1        0.2599
     27 C         137.8893  137.8997  166.6073 C.3     1  UNL1        0.4340
     28 F         137.0542  136.8220  167.2327 F       1  UNL1       -0.1664
     29 F         138.4319  136.9074  165.6219 F       1  UNL1       -0.1664
     30 F         137.3466  138.8920  167.5927 F       1  UNL1       -0.1664
@<TRIPOS>BOND
     1    26    25    1
     2    26    24    1
     3    24     1    1
     4     1     2   ar
     5     2     3   ar
     6     3     4   ar
     7     4    22    1
     8    22    23    3
     9     4     5   ar
    10     5     6   ar
    11     6     7    1
    12     7     8    2
    13     7     9   am
    14     9    10    1
    15    10    11    1
    16    11    12   ar
    17    12    13   ar
    18    13    17    1
    19    17    18    1
    20    18    19    1
    21    19    20    1
    22    20    21    1
    23    13    14   ar
    24    14    15   ar
    25    15    16    1
    26    26    27    1
    27    27    28    1
    28    27    29    1
    29    27    30    1
    30     6     1   ar
    31    16     9    1
    32    15    11   ar
    33    21    17    1
@<TRIPOS>MOLECULE
*****
 30 33 0 0 0
SMALL
GASTEIGER

@<TRIPOS>ATOM
      1 C         140.1693  141.4907  164.4539 C.ar    1  UNL1        0.1431
      2 C         140.6855  140.9875  165.7693 C.ar    1  UNL1        0.0377
      3 C         139.8669  140.0251  166.5777 C.ar    1  UNL1        0.0134
      4 C         138.5319  139.5658  166.0707 C.ar    1  UNL1        0.0688
      5 C         138.0157  140.0690  164.7552 C.ar    1  UNL1        0.0178
      6 C         138.8344  141.0315  163.9468 C.ar    1  UNL1        0.0881
      7 C         138.3181  141.5346  162.6315 C.2     1  UNL1        0.2525
      8 O         137.5032  142.7928  162.5773 O.2     1  UNL1       -0.2698
      9 N         138.6167  140.7796  161.3702 N.am    1  UNL1       -0.2660
     10 C         139.4140  139.5131  161.2685 C.3     1  UNL1        0.1236
     11 C         139.4605  139.1094  159.8246 C.ar    1  UNL1        0.0334
     12 C         139.9820  138.0771  158.8694 C.ar    1  UNL1        0.0936
     13 N         139.5357  138.4560  157.4883 N.ar    1  UNL1       -0.2519
     14 N         138.7384  139.7225  157.5901 N.ar    1  UNL1       -0.1723
     15 C         138.6919  140.1263  159.0339 C.ar    1  UNL1        0.0977
     16 C         138.1704  141.1586  159.9892 C.3     1  UNL1        0.1414
     17 C         139.8343  137.7011  156.2271 C.3     1  UNL1        0.1052
     18 C         140.9440  136.7103  156.0343 C.3     1  UNL1        0.0244
     19 C         140.8711  136.2012  154.6252 C.3     1  UNL1        0.0021
     20 C         139.7165  136.8772  153.9471 C.3     1  UNL1        0.0021
     21 C         139.0757  137.8042  154.9372 C.3     1  UNL1        0.0244
     22 C         137.7133  138.6033  166.8791 C.1     1  UNL1        0.1004
     23 N         136.8946  137.6409  167.6875 N.1     1  UNL1       -0.1908
     24 O         140.9880  142.4532  163.6456 O.3     1  UNL1       -0.4702
     25 C         139.8287  144.6087  164.5172 C.3     1  UNL1        0.0566
     26 C         141.0624  143.8964  164.0475 C.3     1  UNL1        0.2599
     27 C         142.3706  144.6272  163.9799 C.3     1  UNL1        0.4340
     28 F         143.6787  145.3580  163.9121 F       1  UNL1       -0.1664
     29 F         141.6448  145.8948  163.6384 F       1  UNL1       -0.1664
     30 F         143.0964  143.3597  164.3213 F       1  UNL1       -0.1664
@<TRIPOS>BOND
     1    26    25    1
     2    26    24    1
     3    24     1    1
     4     1     2   ar
     5     2     3   ar
     6     3     4   ar
     7     4    22    1
     8    22    23    3
     9     4     5   ar
    10     5     6   ar
    11     6     7    1
    12     7     8    2
    13     7     9   am
    14     9    10    1
    15    10    11    1
    16    11    12   ar
    17    12    13   ar
    18    13    17    1
    19    17    18    1
    20    18    19    1
    21    19    20    1
    22    20    21    1
    23    13    14   ar
    24    14    15   ar
    25    15    16    1
    26    26    27    1
    27    27    28    1
    28    27    29    1
    29    27    30    1
    30     6     1   ar
    31    16     9    1
    32    15    11   ar
    33    21    17    1
@<TRIPOS>MOLECULE
*****
 30 33 0 0 0
SMALL
GASTEIGER

@<TRIPOS>ATOM
      1 C         139.9735  141.8943  164.5855 C.ar    1  UNL1        0.1431
      2 C         140.2477  141.6699  166.0430 C.ar    1  UNL1        0.0377
      3 C         139.5008  140.6061  166.7917 C.ar    1  UNL1        0.0134
      4 C         138.4797  139.7666  166.0828 C.ar    1  UNL1        0.0688
      5 C         138.2055  139.9910  164.6251 C.ar    1  UNL1        0.0178
      6 C         138.9524  141.0548  163.8765 C.ar    1  UNL1        0.0881
      7 C         138.6781  141.2791  162.4190 C.2     1  UNL1        0.2525
      8 O         137.5953  142.2275  161.9969 O.2     1  UNL1       -0.2698
      9 N         139.4866  140.5551  161.3835 N.am    1  UNL1       -0.2660
     10 C         140.5957  139.5818  161.6529 C.3     1  UNL1        0.1236
     11 C         141.1224  139.1024  160.3328 C.ar    1  UNL1        0.0334
     12 C         142.1334  138.2046  159.6834 C.ar    1  UNL1        0.0936
     13 N         141.9748  138.3267  158.1968 N.ar    1  UNL1       -0.2519
     14 N         140.8657  139.3001  157.9274 N.ar    1  UNL1       -0.1723
     15 C         140.3389  139.7795  159.2476 C.ar    1  UNL1        0.0977
     16 C         139.3279  140.6773  159.8970 C.3     1  UNL1        0.1414
     17 C         142.7832  137.6027  157.1614 C.3     1  UNL1        0.1052
     18 C         142.9393  136.1153  157.0460 C.3     1  UNL1        0.0244
     19 C         143.8301  135.8323  155.8728 C.3     1  UNL1        0.0021
     20 C         144.2246  137.1448  155.2631 C.3     1  UNL1        0.0021
     21 C         143.5776  138.2389  156.0594 C.3     1  UNL1        0.0244
     22 C         137.7328  138.7028  166.8314 C.1     1  UNL1        0.1004
     23 N         136.9860  137.6389  167.5800 N.1     1  UNL1       -0.1908
     24 O         140.7204  142.9581  163.8369 O.3     1  UNL1       -0.4702
     25 C         142.9602  141.6830  163.5094 C.3     1  UNL1        0.0566
     26 C         142.2203  142.9504  163.8195 C.3     1  UNL1        0.2599
     27 C         142.9801  144.2101  164.1123 C.3     1  UNL1        0.4340
     28 F         143.7398  145.4699  164.4051 F       1  UNL1       -0.1664
     29 F         141.6919  144.9776  164.1534 F       1  UNL1       -0.1664
     30 F         144.2683  143.4428  164.0713 F       1  UNL1       -0.1664
@<TRIPOS>BOND
     1    26    25    1
     2    26    24    1
     3    24     1    1
     4     1     2   ar
     5     2     3   ar
     6     3     4   ar
     7     4    22    1
     8    22    23    3
     9     4     5   ar
    10     5     6   ar
    11     6     7    1
    12     7     8    2
    13     7     9   am
    14     9    10    1
    15    10    11    1
    16    11    12   ar
    17    12    13   ar
    18    13    17    1
    19    17    18    1
    20    18    19    1
    21    19    20    1
    22    20    21    1
    23    13    14   ar
    24    14    15   ar
    25    15    16    1
    26    26    27    1
    27    27    28    1
    28    27    29    1
    29    27    30    1
    30     6     1   ar
    31    16     9    1
    32    15    11   ar
    33    21    17    1
@<TRIPOS>MOLECULE
*****
 30 33 0 0 0
SMALL
GASTEIGER

@<TRIPOS>ATOM
      1 C         141.6419  140.1805  164.2132 C.ar    1  UNL1        0.1431
      2 C         141.5878  138.7090  164.4990 C.ar    1  UNL1        0.0377
      3 C         140.4302  138.1350  165.2608 C.ar    1  UNL1        0.0134
      4 C         139.3266  139.0325  165.7370 C.ar    1  UNL1        0.0688
      5 C         139.3808  140.5041  165.4511 C.ar    1  UNL1        0.0178
      6 C         140.5384  141.0781  164.6893 C.ar    1  UNL1        0.0881
      7 C         140.5925  142.5496  164.4035 C.2     1  UNL1        0.2525
      8 O         140.8136  143.5233  165.5229 O.2     1  UNL1       -0.2698
      9 N         140.4255  143.0474  162.9984 N.am    1  UNL1       -0.2660
     10 C         140.1988  142.1978  161.7831 C.3     1  UNL1        0.1236
     11 C         140.0891  143.1076  160.5956 C.ar    1  UNL1        0.0334
     12 C         139.8812  143.1448  159.1105 C.ar    1  UNL1        0.0936
     13 N         139.9115  144.5796  158.6739 N.ar    1  UNL1       -0.2519
     14 N         140.1383  145.4291  159.8893 N.ar    1  UNL1       -0.1723
     15 C         140.2480  144.5194  161.0769 C.ar    1  UNL1        0.0977
     16 C         140.4559  144.4822  162.5619 C.3     1  UNL1        0.1414
     17 C         139.7446  145.0774  157.2689 C.3     1  UNL1        0.1052
     18 C         139.8799  146.5010  156.8159 C.3     1  UNL1        0.0244
     19 C         139.6319  146.5424  155.3372 C.3     1  UNL1        0.0021
     20 C         139.3432  145.1445  154.8762 C.3     1  UNL1        0.0021
     21 C         139.4129  144.2391  156.0700 C.3     1  UNL1        0.0244
     22 C         138.1690  138.4585  166.4988 C.1     1  UNL1        0.1004
     23 N         137.0114  137.8845  167.2607 N.1     1  UNL1       -0.1908
     24 O         142.7995  140.7544  163.4513 O.3     1  UNL1       -0.4702
     25 C         145.1195  139.9002  164.2501 C.3     1  UNL1        0.0566
     26 C         144.1061  141.0011  164.1456 C.3     1  UNL1        0.2599
     27 C         144.3991  142.3487  164.7355 C.3     1  UNL1        0.4340
     28 F         144.6922  143.6964  165.3254 F       1  UNL1       -0.1664
     29 F         145.0696  142.7618  163.4588 F       1  UNL1       -0.1664
     30 F         143.7287  141.9357  166.0122 F       1  UNL1       -0.1664
@<TRIPOS>BOND
     1    26    25    1
     2    26    24    1
     3    24     1    1
     4     1     2   ar
     5     2     3   ar
     6     3     4   ar
     7     4    22    1
     8    22    23    3
     9     4     5   ar
    10     5     6   ar
    11     6     7    1
    12     7     8    2
    13     7     9   am
    14     9    10    1
    15    10    11    1
    16    11    12   ar
    17    12    13   ar
    18    13    17    1
    19    17    18    1
    20    18    19    1
    21    19    20    1
    22    20    21    1
    23    13    14   ar
    24    14    15   ar
    25    15    16    1
    26    26    27    1
    27    27    28    1
    28    27    29    1
    29    27    30    1
    30     6     1   ar
    31    16     9    1
    32    15    11   ar
    33    21    17    1
@<TRIPOS>MOLECULE
*****
 30 33 0 0 0
SMALL
GASTEIGER

@<TRIPOS>ATOM
      1 C         140.8769  140.4637  165.1066 C.ar    1  UNL1        0.1431
      2 C         141.8378  139.5955  165.8634 C.ar    1  UNL1        0.0377
      3 C         142.6382  140.1711  166.9939 C.ar    1  UNL1        0.0134
      4 C         142.4778  141.6149  167.3676 C.ar    1  UNL1        0.0688
      5 C         141.5168  142.4831  166.6107 C.ar    1  UNL1        0.0178
      6 C         140.7164  141.9076  165.4802 C.ar    1  UNL1        0.0881
      7 C         139.7555  142.7759  164.7234 C.2     1  UNL1        0.2525
      8 O         138.4831  143.2309  165.3745 O.2     1  UNL1       -0.2698
      9 N         140.0671  143.1892  163.3155 N.am    1  UNL1       -0.2660
     10 C         141.2933  142.8140  162.5374 C.3     1  UNL1        0.1236
     11 C         141.1911  143.4432  161.1796 C.ar    1  UNL1        0.0334
     12 C         141.8859  143.6002  159.8595 C.ar    1  UNL1        0.0936
     13 N         141.0258  144.4613  158.9825 N.ar    1  UNL1       -0.2519
     14 N         139.7995  144.8364  159.7607 N.ar    1  UNL1       -0.1723
     15 C         139.9017  144.2072  161.1185 C.ar    1  UNL1        0.0977
     16 C         139.2070  144.0502  162.4387 C.3     1  UNL1        0.1414
     17 C         141.3373  144.8746  157.5747 C.3     1  UNL1        0.1052
     18 C         140.6244  145.9349  156.7888 C.3     1  UNL1        0.0244
     19 C         141.2630  146.0158  155.4339 C.3     1  UNL1        0.0021
     20 C         142.3705  145.0055  155.3824 C.3     1  UNL1        0.0021
     21 C         142.4164  144.3002  156.7054 C.3     1  UNL1        0.0244
     22 C         143.2782  142.1904  168.4981 C.1     1  UNL1        0.1004
     23 N         144.0786  142.7660  169.6286 N.1     1  UNL1       -0.1908
     24 O         140.0765  139.8882  163.9761 O.3     1  UNL1       -0.4702
     25 C         138.8396  137.7249  163.2410 C.3     1  UNL1        0.0566
     26 C         139.0614  138.8170  164.2450 C.3     1  UNL1        0.2599
     27 C         138.2682  138.8381  165.5179 C.3     1  UNL1        0.4340
     28 F         137.4750  138.8591  166.7908 F       1  UNL1       -0.1664
     29 F         138.8226  137.4936  165.8856 F       1  UNL1       -0.1664
     30 F         137.7137  140.1825  165.1502 F       1  UNL1       -0.1664
@<TRIPOS>BOND
     1    26    25    1
     2    26    24    1
     3    24     1    1
     4     1     2   ar
     5     2     3   ar
     6     3     4   ar
     7     4    22    1
     8    22    23    3
     9     4     5   ar
    10     5     6   ar
    11     6     7    1
    12     7     8    2
    13     7     9   am
    14     9    10    1
    15    10    11    1
    16    11    12   ar
    17    12    13   ar
    18    13    17    1
    19    17    18    1
    20    18    19    1
    21    19    20    1
    22    20    21    1
    23    13    14   ar
    24    14    15   ar
    25    15    16    1
    26    26    27    1
    27    27    28    1
    28    27    29    1
    29    27    30    1
    30     6     1   ar
    31    16     9    1
    32    15    11   ar
    33    21    17    1
@<TRIPOS>MOLECULE
*****
 30 33 0 0 0
SMALL
GASTEIGER

@<TRIPOS>ATOM
      1 C         141.3244  140.5188  165.6366 C.ar    1  UNL1        0.1431
      2 C         140.3815  139.9866  166.6747 C.ar    1  UNL1        0.0377
      3 C         140.0411  140.8182  167.8757 C.ar    1  UNL1        0.0134
      4 C         140.6437  142.1822  168.0387 C.ar    1  UNL1        0.0688
      5 C         141.5867  142.7144  167.0005 C.ar    1  UNL1        0.0178
      6 C         141.9271  141.8827  165.7995 C.ar    1  UNL1        0.0881
      7 C         142.8700  142.4150  164.7615 C.2     1  UNL1        0.2525
      8 O         144.3414  142.4773  165.0463 O.2     1  UNL1       -0.2698
      9 N         142.3416  142.8850  163.4387 N.am    1  UNL1       -0.2660
     10 C         140.9032  142.8835  163.0130 C.3     1  UNL1        0.1236
     11 C         140.8315  143.4366  161.6205 C.ar    1  UNL1        0.0334
     12 C         139.8982  143.7775  160.4968 C.ar    1  UNL1        0.0936
     13 N         140.7153  144.3315  159.3674 N.ar    1  UNL1       -0.2519
     14 N         142.1536  144.3330  159.7932 N.ar    1  UNL1       -0.1723
     15 C         142.2254  143.7799  161.1856 C.ar    1  UNL1        0.0977
     16 C         143.1587  143.4390  162.3093 C.3     1  UNL1        0.1414
     17 C         140.1869  144.8015  158.0447 C.3     1  UNL1        0.1052
     18 C         140.2808  146.1973  157.5032 C.3     1  UNL1        0.0244
     19 C         139.6237  146.2167  156.1550 C.3     1  UNL1        0.0021
     20 C         139.1237  144.8329  155.8630 C.3     1  UNL1        0.0021
     21 C         139.4717  143.9583  157.0309 C.3     1  UNL1        0.0244
     22 C         140.3033  143.0139  169.2397 C.1     1  UNL1        0.1004
     23 N         139.9629  143.8456  170.4407 N.1     1  UNL1       -0.1908
     24 O         141.6648  139.6871  164.4356 O.3     1  UNL1       -0.4702
     25 C         143.7412  139.2017  162.9513 C.3     1  UNL1        0.0566
     26 C         143.0472  139.1263  164.2790 C.3     1  UNL1        0.2599
     27 C         143.7356  138.4903  165.4501 C.3     1  UNL1        0.4340
     28 F         144.4239  137.8541  166.6212 F       1  UNL1       -0.1664
     29 F         142.5428  137.6082  165.6722 F       1  UNL1       -0.1664
     30 F         144.9284  139.3723  165.2281 F       1  UNL1       -0.1664
@<TRIPOS>BOND
     1    26    25    1
     2    26    24    1
     3    24     1    1
     4     1     2   ar
     5     2     3   ar
     6     3     4   ar
     7     4    22    1
     8    22    23    3
     9     4     5   ar
    10     5     6   ar
    11     6     7    1
    12     7     8    2
    13     7     9   am
    14     9    10    1
    15    10    11    1
    16    11    12   ar
    17    12    13   ar
    18    13    17    1
    19    17    18    1
    20    18    19    1
    21    19    20    1
    22    20    21    1
    23    13    14   ar
    24    14    15   ar
    25    15    16    1
    26    26    27    1
    27    27    28    1
    28    27    29    1
    29    27    30    1
    30     6     1   ar
    31    16     9    1
    32    15    11   ar
    33    21    17    1
@<TRIPOS>MOLECULE
*****
 30 33 0 0 0
SMALL
GASTEIGER

@<TRIPOS>ATOM
      1 C         140.5382  141.0267  165.5283 C.ar    1  UNL1        0.1431
      2 C         140.1535  142.1373  166.4602 C.ar    1  UNL1        0.0377
      3 C         141.0990  142.5710  167.5409 C.ar    1  UNL1        0.0134
      4 C         142.4293  141.8941  167.6898 C.ar    1  UNL1        0.0688
      5 C         142.8140  140.7834  166.7578 C.ar    1  UNL1        0.0178
      6 C         141.8685  140.3497  165.6770 C.ar    1  UNL1        0.0881
      7 C         142.2533  139.2391  164.7452 C.2     1  UNL1        0.2525
      8 O         142.1894  137.8143  165.2097 O.2     1  UNL1       -0.2698
      9 N         142.7020  139.5533  163.3487 N.am    1  UNL1       -0.2660
     10 C         142.8158  140.9222  162.7462 C.3     1  UNL1        0.1236
     11 C         143.2997  140.7686  161.3348 C.ar    1  UNL1        0.0334
     12 C         143.6692  141.5198  160.0901 C.ar    1  UNL1        0.0936
     13 N         144.0828  140.5201  159.0510 N.ar    1  UNL1       -0.2519
     14 N         143.9690  139.1511  159.6535 N.ar    1  UNL1       -0.1723
     15 C         143.4850  139.3048  161.0650 C.ar    1  UNL1        0.0977
     16 C         143.1156  138.5536  162.3097 C.3     1  UNL1        0.1414
     17 C         144.5315  140.8343  157.6546 C.3     1  UNL1        0.1052
     18 C         145.4294  141.9660  157.2506 C.3     1  UNL1        0.0244
     19 C         145.6139  141.9030  155.7633 C.3     1  UNL1        0.0021
     20 C         144.8300  140.7325  155.2481 C.3     1  UNL1        0.0021
     21 C         144.1611  140.0720  156.4169 C.3     1  UNL1        0.0244
     22 C         143.3747  142.3278  168.7705 C.1     1  UNL1        0.1004
     23 N         144.3202  142.7614  169.8512 N.1     1  UNL1       -0.1908
     24 O         139.5928  140.5931  164.4475 O.3     1  UNL1       -0.4702
     25 C         138.3046  138.7617  165.7655 C.3     1  UNL1        0.0566
     26 C         138.9637  139.2325  164.5029 C.3     1  UNL1        0.2599
     27 C         138.9936  138.3427  163.2957 C.3     1  UNL1        0.4340
     28 F         139.0236  137.4531  162.0884 F       1  UNL1       -0.1664
     29 F         139.4613  139.4956  162.4576 F       1  UNL1       -0.1664
     30 F         138.5260  137.1899  164.1337 F       1  UNL1       -0.1664
@<TRIPOS>BOND
     1    26    25    1
     2    26    24    1
     3    24     1    1
     4     1     2   ar
     5     2     3   ar
     6     3     4   ar
     7     4    22    1
     8    22    23    3
     9     4     5   ar
    10     5     6   ar
    11     6     7    1
    12     7     8    2
    13     7     9   am
    14     9    10    1
    15    10    11    1
    16    11    12   ar
    17    12    13   ar
    18    13    17    1
    19    17    18    1
    20    18    19    1
    21    19    20    1
    22    20    21    1
    23    13    14   ar
    24    14    15   ar
    25    15    16    1
    26    26    27    1
    27    27    28    1
    28    27    29    1
    29    27    30    1
    30     6     1   ar
    31    16     9    1
    32    15    11   ar
    33    21    17    1
