@<TRIPOS>MOLECULE
*****
 32 36 0 0 0
SMALL
GASTEIGER

@<TRIPOS>ATOM
      1 C         140.1642  139.4391  165.4287 C.2     1  UNL1        0.2685
      2 O         138.8176  139.2947  166.0735 O.2     1  UNL1       -0.2682
      3 N         141.2838  140.1059  166.1714 N.am    1  UNL1       -0.2723
      4 C         141.0569  140.6283  167.5590 C.3     1  UNL1        0.0761
      5 C         141.5152  139.9792  168.8314 C.3     1  UNL1        0.0213
      6 C         141.0734  140.8413  169.9767 C.3     1  UNL1        0.0188
      7 C         141.0836  140.9728  171.4709 C.3     1  UNL1        0.0686
      8 N         140.3587  142.2360  171.8299 N.3     1  UNL1       -0.2975
      9 C         139.9004  142.8851  170.5576 C.3     1  UNL1        0.0686
     10 C         140.3422  142.0231  169.4123 C.3     1  UNL1        0.0188
     11 C         140.3319  141.8915  167.9181 C.3     1  UNL1        0.0213
     12 H         140.9857  142.8641  172.3325 H       1  UNL1        0.1232
     13 C         140.2046  139.0186  160.1654 C.3     1  UNL1        0.1321
     14 N         140.4096  138.7234  161.6217 N.ar    1  UNL1       -0.3057
     15 C         141.0704  137.5024  162.1893 C.ar    1  UNL1        0.1787
     16 N         141.0589  137.6219  163.6845 N.ar    1  UNL1       -0.2192
     17 C         140.3910  138.9167  164.0409 C.ar    1  UNL1        0.1535
     18 C         139.9896  139.5976  162.7661 C.ar    1  UNL1        0.1012
     19 C         142.6304  140.2503  165.5265 C.3     1  UNL1        0.1205
     20 C         143.0282  141.5564  164.9052 C.ar    1  UNL1        0.0008
     21 C         144.4404  141.7697  164.4469 C.ar    1  UNL1       -0.0001
     22 C         144.8382  143.0758  163.8256 C.ar    1  UNL1        0.0325
     23 C         143.8236  144.1685  163.6626 C.ar    1  UNL1        0.1738
     24 F         144.2213  145.4746  163.0413 F       1  UNL1       -0.2010
     25 C         142.4114  143.9552  164.1209 C.ar    1  UNL1        0.1653
     26 C         142.0136  142.6491  164.7422 C.ar    1  UNL1        0.0366
     27 O         141.3968  145.0479  163.9579 O.3     1  UNL1       -0.4769
     28 C         139.9332  144.7196  163.9655 C.3     1  UNL1        0.1660
     29 C         139.0876  144.4328  162.7602 C.3     1  UNL1        0.0435
     30 C         137.6900  144.1563  163.2295 C.3     1  UNL1        0.0038
     31 C         137.6718  144.2722  164.7249 C.3     1  UNL1        0.0038
     32 C         139.0582  144.6204  165.1798 C.3     1  UNL1        0.0435
@<TRIPOS>BOND
     1    13    14    1
     2    14    15   ar
     3    15    16   ar
     4    16    17   ar
     5    17     1    1
     6     1     2    2
     7     1     3   am
     8     3    19    1
     9    19    20    1
    10    20    21   ar
    11    21    22   ar
    12    22    23   ar
    13    23    24    1
    14    23    25   ar
    15    25    27    1
    16    27    28    1
    17    28    29    1
    18    29    30    1
    19    30    31    1
    20    31    32    1
    21    25    26   ar
    22     4     3    1
    23     4     5    1
    24     6     5    1
    25     6     7    1
    26     7     8    1
    27     8     9    1
    28    10     9    1
    29    10    11    1
    30    17    18   ar
    31    18    14   ar
    32    26    20   ar
    33    11     4    1
    34    32    28    1
    35    10     6    1
    36     8    12    1
@<TRIPOS>MOLECULE
*****
 32 36 0 0 0
SMALL
GASTEIGER

@<TRIPOS>ATOM
      1 C         140.6118  139.4215  165.3141 C.2     1  UNL1        0.2685
      2 O         141.7757  138.7085  165.9362 O.2     1  UNL1       -0.2682
      3 N         139.9457  140.5495  166.0447 N.am    1  UNL1       -0.2723
      4 C         140.4435  140.9646  167.3974 C.3     1  UNL1        0.0761
      5 C         141.4417  142.0494  167.6749 C.3     1  UNL1        0.0213
      6 C         141.6456  142.1231  169.1591 C.3     1  UNL1        0.0188
      7 C         142.3886  142.8390  170.2479 C.3     1  UNL1        0.0686
      8 N         141.9755  142.2423  171.5606 N.3     1  UNL1       -0.2975
      9 C         140.9773  141.1576  171.2832 C.3     1  UNL1        0.0686
     10 C         140.7734  141.0839  169.7990 C.3     1  UNL1        0.0188
     11 C         140.0304  140.3680  168.7102 C.3     1  UNL1        0.0213
     12 H         141.5523  142.9599  172.1492 H       1  UNL1        0.1232
     13 C         140.1056  138.9372  160.0806 C.3     1  UNL1        0.1321
     14 N         139.8814  138.7836  161.5558 N.ar    1  UNL1       -0.3057
     15 C         138.8151  137.9512  162.2036 C.ar    1  UNL1        0.1787
     16 N         138.9588  138.0888  163.6904 N.ar    1  UNL1       -0.2192
     17 C         140.1141  139.0063  163.9614 C.ar    1  UNL1        0.1535
     18 C         140.6843  139.4358  162.6421 C.ar    1  UNL1        0.1012
     19 C         138.7818  141.2624  165.4225 C.3     1  UNL1        0.1205
     20 C         139.0054  142.5224  164.6399 C.ar    1  UNL1        0.0008
     21 C         137.8452  143.2197  163.9935 C.ar    1  UNL1       -0.0001
     22 C         138.0689  144.4797  163.2109 C.ar    1  UNL1        0.0325
     23 C         139.4527  145.0424  163.0749 C.ar    1  UNL1        0.1738
     24 F         139.6763  146.3024  162.2923 F       1  UNL1       -0.2010
     25 C         140.6127  144.3451  163.7213 C.ar    1  UNL1        0.1653
     26 C         140.3891  143.0851  164.5038 C.ar    1  UNL1        0.0366
     27 O         141.9966  144.9078  163.5852 O.3     1  UNL1       -0.4769
     28 C         143.1847  143.9928  163.6175 C.3     1  UNL1        0.1660
     29 C         143.9430  143.5752  164.8425 C.3     1  UNL1        0.0435
     30 C         145.0501  142.6591  164.4126 C.3     1  UNL1        0.0038
     31 C         144.9761  142.5104  162.9218 C.3     1  UNL1        0.0038
     32 C         143.8232  143.3346  162.4304 C.3     1  UNL1        0.0435
@<TRIPOS>BOND
     1    13    14    1
     2    14    15   ar
     3    15    16   ar
     4    16    17   ar
     5    17     1    1
     6     1     2    2
     7     1     3   am
     8     3    19    1
     9    19    20    1
    10    20    21   ar
    11    21    22   ar
    12    22    23   ar
    13    23    24    1
    14    23    25   ar
    15    25    27    1
    16    27    28    1
    17    28    29    1
    18    29    30    1
    19    30    31    1
    20    31    32    1
    21    25    26   ar
    22     4     3    1
    23     4     5    1
    24     6     5    1
    25     6     7    1
    26     7     8    1
    27     8     9    1
    28    10     9    1
    29    10    11    1
    30    17    18   ar
    31    18    14   ar
    32    26    20   ar
    33    11     4    1
    34    32    28    1
    35    10     6    1
    36     8    12    1
@<TRIPOS>MOLECULE
*****
 32 36 0 0 0
SMALL
GASTEIGER

@<TRIPOS>ATOM
      1 C         142.3802  140.2167  165.0445 C.2     1  UNL1        0.2685
      2 O         143.2878  141.3096  165.5260 O.2     1  UNL1       -0.2682
      3 N         141.2993  139.6900  165.9412 N.am    1  UNL1       -0.2723
      4 C         141.1259  140.2562  167.3193 C.3     1  UNL1        0.0761
      5 C         140.1541  141.3276  167.7166 C.3     1  UNL1        0.0213
      6 C         140.3214  141.5840  169.1850 C.3     1  UNL1        0.0188
      7 C         139.8242  142.4046  170.3380 C.3     1  UNL1        0.0686
      8 N         140.5921  141.9988  171.5609 N.3     1  UNL1       -0.2975
      9 C         141.5639  140.9274  171.1638 C.3     1  UNL1        0.0686
     10 C         141.3966  140.6710  169.6953 C.3     1  UNL1        0.0188
     11 C         141.8938  139.8504  168.5424 C.3     1  UNL1        0.0213
     12 H         139.9514  141.6399  172.2687 H       1  UNL1        0.1232
     13 C         142.3227  139.6807  159.7919 C.3     1  UNL1        0.1321
     14 N         142.5273  139.4041  161.2520 N.ar    1  UNL1       -0.3057
     15 C         143.1139  138.1547  161.8390 C.ar    1  UNL1        0.1787
     16 N         143.1302  138.3070  163.3312 N.ar    1  UNL1       -0.2192
     17 C         142.5537  139.6505  163.6663 C.ar    1  UNL1        0.1535
     18 C         142.1810  140.3287  162.3813 C.ar    1  UNL1        0.1012
     19 C         140.3917  138.5971  165.4597 C.3     1  UNL1        0.1205
     20 C         139.5060  138.8269  164.2711 C.ar    1  UNL1        0.0008
     21 C         139.3399  137.7502  163.2401 C.ar    1  UNL1       -0.0001
     22 C         138.4541  137.9801  162.0515 C.ar    1  UNL1        0.0325
     23 C         137.7346  139.2868  161.8941 C.ar    1  UNL1        0.1738
     24 F         136.8489  139.5167  160.7054 F       1  UNL1       -0.2010
     25 C         137.9008  140.3635  162.9250 C.ar    1  UNL1        0.1653
     26 C         138.7864  140.1336  164.1136 C.ar    1  UNL1        0.0366
     27 O         137.1812  141.6703  162.7675 O.3     1  UNL1       -0.4769
     28 C         137.8210  142.9408  163.2433 C.3     1  UNL1        0.1660
     29 C         138.6037  143.9034  162.4000 C.3     1  UNL1        0.0435
     30 C         139.0569  145.0293  163.2814 C.3     1  UNL1        0.0038
     31 C         138.5544  144.7626  164.6693 C.3     1  UNL1        0.0038
     32 C         137.7906  143.4719  164.6458 C.3     1  UNL1        0.0435
@<TRIPOS>BOND
     1    13    14    1
     2    14    15   ar
     3    15    16   ar
     4    16    17   ar
     5    17     1    1
     6     1     2    2
     7     1     3   am
     8     3    19    1
     9    19    20    1
    10    20    21   ar
    11    21    22   ar
    12    22    23   ar
    13    23    24    1
    14    23    25   ar
    15    25    27    1
    16    27    28    1
    17    28    29    1
    18    29    30    1
    19    30    31    1
    20    31    32    1
    21    25    26   ar
    22     4     3    1
    23     4     5    1
    24     6     5    1
    25     6     7    1
    26     7     8    1
    27     8     9    1
    28    10     9    1
    29    10    11    1
    30    17    18   ar
    31    18    14   ar
    32    26    20   ar
    33    11     4    1
    34    32    28    1
    35    10     6    1
    36     8    12    1
@<TRIPOS>MOLECULE
*****
 32 36 0 0 0
SMALL
GASTEIGER

@<TRIPOS>ATOM
      1 C         143.4649  140.6523  165.3664 C.2     1  UNL1        0.2685
      2 O         143.7187  139.3214  166.0100 O.2     1  UNL1       -0.2682
      3 N         142.7314  141.7220  166.1197 N.am    1  UNL1       -0.2723
      4 C         142.2515  141.4609  167.5166 C.3     1  UNL1        0.0761
      5 C         142.8121  142.0667  168.7691 C.3     1  UNL1        0.0213
      6 C         142.0339  141.5283  169.9330 C.3     1  UNL1        0.0188
      7 C         141.8994  141.5700  171.4264 C.3     1  UNL1        0.0686
      8 N         140.7748  140.6571  171.8161 N.3     1  UNL1       -0.2975
      9 C         140.2142  140.0513  170.5636 C.3     1  UNL1        0.0686
     10 C         140.9924  140.5897  169.3998 C.3     1  UNL1        0.0188
     11 C         141.1269  140.5480  167.9064 C.3     1  UNL1        0.0213
     12 H         140.0495  141.1878  172.2985 H       1  UNL1        0.1232
     13 C         143.8622  140.6017  160.1014 C.3     1  UNL1        0.1321
     14 N         144.1274  140.8902  161.5493 N.ar    1  UNL1       -0.3057
     15 C         145.2388  141.7400  162.0899 C.ar    1  UNL1        0.1787
     16 N         145.1260  141.7544  163.5855 N.ar    1  UNL1       -0.2192
     17 C         143.9448  140.9134  163.9693 C.ar    1  UNL1        0.1535
     18 C         143.3276  140.3792  162.7109 C.ar    1  UNL1        0.1012
     19 C         142.4776  143.0529  165.4760 C.3     1  UNL1        0.1205
     20 C         141.1638  143.3229  164.8045 C.ar    1  UNL1        0.0008
     21 C         140.8484  144.6997  164.2996 C.ar    1  UNL1       -0.0001
     22 C         139.5345  144.9697  163.6281 C.ar    1  UNL1        0.0325
     23 C         138.5361  143.8627  163.4615 C.ar    1  UNL1        0.1738
     24 F         137.2221  144.1326  162.7900 F       1  UNL1       -0.2010
     25 C         138.8514  142.4859  163.9664 C.ar    1  UNL1        0.1653
     26 C         140.1653  142.2160  164.6378 C.ar    1  UNL1        0.0366
     27 O         137.8529  141.3790  163.7998 O.3     1  UNL1       -0.4769
     28 C         138.1694  140.0016  164.3025 C.3     1  UNL1        0.1660
     29 C         138.6394  138.8456  163.4701 C.3     1  UNL1        0.0435
     30 C         138.8320  137.6680  164.3789 C.3     1  UNL1        0.0038
     31 C         138.4810  138.0961  165.7730 C.3     1  UNL1        0.0038
     32 C         138.0715  139.5384  165.7257 C.3     1  UNL1        0.0435
@<TRIPOS>BOND
     1    13    14    1
     2    14    15   ar
     3    15    16   ar
     4    16    17   ar
     5    17     1    1
     6     1     2    2
     7     1     3   am
     8     3    19    1
     9    19    20    1
    10    20    21   ar
    11    21    22   ar
    12    22    23   ar
    13    23    24    1
    14    23    25   ar
    15    25    27    1
    16    27    28    1
    17    28    29    1
    18    29    30    1
    19    30    31    1
    20    31    32    1
    21    25    26   ar
    22     4     3    1
    23     4     5    1
    24     6     5    1
    25     6     7    1
    26     7     8    1
    27     8     9    1
    28    10     9    1
    29    10    11    1
    30    17    18   ar
    31    18    14   ar
    32    26    20   ar
    33    11     4    1
    34    32    28    1
    35    10     6    1
    36     8    12    1
@<TRIPOS>MOLECULE
*****
 32 36 0 0 0
SMALL
GASTEIGER

@<TRIPOS>ATOM
      1 C         139.3508  139.2030  165.5231 C.2     1  UNL1        0.2685
      2 O         138.3522  138.8868  166.5968 O.2     1  UNL1       -0.2682
      3 N         140.6939  139.7616  165.8890 N.am    1  UNL1       -0.2723
      4 C         141.0385  140.0040  167.3285 C.3     1  UNL1        0.0761
      5 C         142.2783  139.5335  168.0297 C.3     1  UNL1        0.0213
      6 C         142.2099  139.9982  169.4542 C.3     1  UNL1        0.0188
      7 C         142.9338  139.9946  170.7680 C.3     1  UNL1        0.0686
      8 N         142.0992  140.7502  171.7591 N.3     1  UNL1       -0.2975
      9 C         140.8594  141.2208  171.0580 C.3     1  UNL1        0.0686
     10 C         140.9278  140.7561  169.6335 C.3     1  UNL1        0.0188
     11 C         140.2039  140.7597  168.3198 C.3     1  UNL1        0.0213
     12 H         142.6222  141.5514  172.1126 H       1  UNL1        0.1232
     13 C         137.4055  139.8175  160.6529 C.3     1  UNL1        0.1321
     14 N         138.1120  139.2430  161.8449 N.ar    1  UNL1       -0.3057
     15 C         138.8392  137.9320  161.8915 C.ar    1  UNL1        0.1787
     16 N         139.3918  137.7574  163.2751 N.ar    1  UNL1       -0.2192
     17 C         139.0061  138.9605  164.0835 C.ar    1  UNL1        0.1535
     18 C         138.2150  139.8787  163.1996 C.ar    1  UNL1        0.1012
     19 C         141.6925  140.0778  164.8151 C.3     1  UNL1        0.1205
     20 C         142.3055  141.4447  164.7401 C.ar    1  UNL1        0.0008
     21 C         143.6777  141.6829  165.2973 C.ar    1  UNL1       -0.0001
     22 C         144.2908  143.0499  165.2223 C.ar    1  UNL1        0.0325
     23 C         143.5316  144.1785  164.5900 C.ar    1  UNL1        0.1738
     24 F         144.1447  145.5456  164.5150 F       1  UNL1       -0.2010
     25 C         142.1595  143.9403  164.0328 C.ar    1  UNL1        0.1653
     26 C         141.5464  142.5734  164.1079 C.ar    1  UNL1        0.0366
     27 O         141.4003  145.0691  163.4005 O.3     1  UNL1       -0.4769
     28 C         141.1471  145.0672  161.9221 C.3     1  UNL1        0.1660
     29 C         141.9530  144.3348  160.8904 C.3     1  UNL1        0.0435
     30 C         141.3475  144.6123  159.5464 C.3     1  UNL1        0.0038
     31 C         140.1674  145.5162  159.7474 C.3     1  UNL1        0.0038
     32 C         140.0435  145.7973  161.2157 C.3     1  UNL1        0.0435
@<TRIPOS>BOND
     1    13    14    1
     2    14    15   ar
     3    15    16   ar
     4    16    17   ar
     5    17     1    1
     6     1     2    2
     7     1     3   am
     8     3    19    1
     9    19    20    1
    10    20    21   ar
    11    21    22   ar
    12    22    23   ar
    13    23    24    1
    14    23    25   ar
    15    25    27    1
    16    27    28    1
    17    28    29    1
    18    29    30    1
    19    30    31    1
    20    31    32    1
    21    25    26   ar
    22     4     3    1
    23     4     5    1
    24     6     5    1
    25     6     7    1
    26     7     8    1
    27     8     9    1
    28    10     9    1
    29    10    11    1
    30    17    18   ar
    31    18    14   ar
    32    26    20   ar
    33    11     4    1
    34    32    28    1
    35    10     6    1
    36     8    12    1
@<TRIPOS>MOLECULE
*****
 32 36 0 0 0
SMALL
GASTEIGER

@<TRIPOS>ATOM
      1 C         140.5355  140.2459  167.3844 C.2     1  UNL1        0.2685
      2 O         139.0852  139.9771  167.6573 O.2     1  UNL1       -0.2682
      3 N         141.0664  140.1455  165.9851 N.am    1  UNL1       -0.2723
      4 C         140.1472  139.7764  164.8588 C.3     1  UNL1        0.0761
      5 C         139.2653  140.7195  164.0952 C.3     1  UNL1        0.0213
      6 C         138.5214  139.9253  163.0628 C.3     1  UNL1        0.0188
      7 C         137.5167  140.0174  161.9528 C.3     1  UNL1        0.0686
      8 N         137.3178  138.6404  161.3922 N.3     1  UNL1       -0.2975
      9 C         138.1997  137.6972  162.1557 C.3     1  UNL1        0.0686
     10 C         138.9435  138.4914  163.1882 C.3     1  UNL1        0.0188
     11 C         139.9483  138.3993  164.2982 C.3     1  UNL1        0.0213
     12 H         137.5719  138.6288  160.4045 H       1  UNL1        0.1232
     13 C         143.4348  143.0605  170.7832 C.3     1  UNL1        0.1321
     14 N         142.7874  141.9087  170.0730 N.ar    1  UNL1       -0.3057
     15 C         142.9511  140.4575  170.4150 C.ar    1  UNL1        0.1787
     16 N         142.1275  139.6579  169.4495 N.ar    1  UNL1       -0.2192
     17 C         141.4547  140.6150  168.5108 C.ar    1  UNL1        0.1535
     18 C         141.8626  142.0061  168.8961 C.ar    1  UNL1        0.1012
     19 C         142.5167  140.4143  165.7122 C.3     1  UNL1        0.1205
     20 C         142.9318  141.7017  165.0640 C.ar    1  UNL1        0.0008
     21 C         144.3572  141.9039  164.6427 C.ar    1  UNL1       -0.0001
     22 C         144.7722  143.1915  163.9945 C.ar    1  UNL1        0.0325
     23 C         143.7619  144.2767  163.7677 C.ar    1  UNL1        0.1738
     24 F         144.1769  145.5642  163.1195 F       1  UNL1       -0.2010
     25 C         142.3366  144.0745  164.1890 C.ar    1  UNL1        0.1653
     26 C         141.9215  142.7870  164.8372 C.ar    1  UNL1        0.0366
     27 O         141.3262  145.1598  163.9622 O.3     1  UNL1       -0.4769
     28 C         139.8631  144.8300  163.9424 C.3     1  UNL1        0.1660
     29 C         139.0570  144.4689  162.7300 C.3     1  UNL1        0.0435
     30 C         137.6448  144.2192  163.1698 C.3     1  UNL1        0.0038
     31 C         137.5781  144.4260  164.6540 C.3     1  UNL1        0.0038
     32 C         138.9491  144.8035  165.1315 C.3     1  UNL1        0.0435
@<TRIPOS>BOND
     1    13    14    1
     2    14    15   ar
     3    15    16   ar
     4    16    17   ar
     5    17     1    1
     6     1     2    2
     7     1     3   am
     8     3    19    1
     9    19    20    1
    10    20    21   ar
    11    21    22   ar
    12    22    23   ar
    13    23    24    1
    14    23    25   ar
    15    25    27    1
    16    27    28    1
    17    28    29    1
    18    29    30    1
    19    30    31    1
    20    31    32    1
    21    25    26   ar
    22     4     3    1
    23     4     5    1
    24     6     5    1
    25     6     7    1
    26     7     8    1
    27     8     9    1
    28    10     9    1
    29    10    11    1
    30    17    18   ar
    31    18    14   ar
    32    26    20   ar
    33    11     4    1
    34    32    28    1
    35    10     6    1
    36     8    12    1
@<TRIPOS>MOLECULE
*****
 32 36 0 0 0
SMALL
GASTEIGER

@<TRIPOS>ATOM
      1 C         139.3005  139.8133  165.4851 C.2     1  UNL1        0.2685
      2 O         138.7694  138.7568  166.4080 O.2     1  UNL1       -0.2682
      3 N         140.2918  140.8200  165.9891 N.am    1  UNL1       -0.2723
      4 C         140.7520  140.7700  167.4158 C.3     1  UNL1        0.0761
      5 C         140.0795  141.4303  168.5828 C.3     1  UNL1        0.0213
      6 C         140.8775  141.1194  169.8144 C.3     1  UNL1        0.0188
      7 C         140.9550  141.3354  171.2967 C.3     1  UNL1        0.0686
      8 N         142.1685  140.6164  171.8070 N.3     1  UNL1       -0.2975
      9 C         142.8410  139.9561  170.6400 C.3     1  UNL1        0.0686
     10 C         142.0431  140.2670  169.4085 C.3     1  UNL1        0.0188
     11 C         141.9656  140.0511  167.9262 C.3     1  UNL1        0.0213
     12 H         141.8915  139.9121  172.4908 H       1  UNL1        0.1232
     13 C         138.9463  138.9415  160.2895 C.3     1  UNL1        0.1321
     14 N         138.6774  139.4625  161.6702 N.ar    1  UNL1       -0.3057
     15 C         137.5866  140.4173  162.0554 C.ar    1  UNL1        0.1787
     16 N         137.6873  140.6649  163.5314 N.ar    1  UNL1       -0.2192
     17 C         138.8402  139.8632  164.0583 C.ar    1  UNL1        0.1535
     18 C         139.4522  139.1200  162.9081 C.ar    1  UNL1        0.1012
     19 C         140.8229  141.8765  165.0662 C.3     1  UNL1        0.1205
     20 C         142.2636  141.8530  164.6494 C.ar    1  UNL1        0.0008
     21 C         143.1870  142.9538  165.0802 C.ar    1  UNL1       -0.0001
     22 C         144.6279  142.9303  164.6634 C.ar    1  UNL1        0.0325
     23 C         145.1451  141.8059  163.8159 C.ar    1  UNL1        0.1738
     24 F         146.5859  141.7824  163.3991 F       1  UNL1       -0.2010
     25 C         144.2217  140.7052  163.3852 C.ar    1  UNL1        0.1653
     26 C         142.7809  140.7287  163.8020 C.ar    1  UNL1        0.0366
     27 O         144.7390  139.5808  162.5377 O.3     1  UNL1       -0.4769
     28 C         144.0062  139.1831  161.2907 C.3     1  UNL1        0.1660
     29 C         143.7113  140.0729  160.1196 C.3     1  UNL1        0.0435
     30 C         142.9626  139.2656  159.1010 C.3     1  UNL1        0.0038
     31 C         142.7947  137.8769  159.6425 C.3     1  UNL1        0.0038
     32 C         143.4398  137.8259  160.9958 C.3     1  UNL1        0.0435
@<TRIPOS>BOND
     1    13    14    1
     2    14    15   ar
     3    15    16   ar
     4    16    17   ar
     5    17     1    1
     6     1     2    2
     7     1     3   am
     8     3    19    1
     9    19    20    1
    10    20    21   ar
    11    21    22   ar
    12    22    23   ar
    13    23    24    1
    14    23    25   ar
    15    25    27    1
    16    27    28    1
    17    28    29    1
    18    29    30    1
    19    30    31    1
    20    31    32    1
    21    25    26   ar
    22     4     3    1
    23     4     5    1
    24     6     5    1
    25     6     7    1
    26     7     8    1
    27     8     9    1
    28    10     9    1
    29    10    11    1
    30    17    18   ar
    31    18    14   ar
    32    26    20   ar
    33    11     4    1
    34    32    28    1
    35    10     6    1
    36     8    12    1
@<TRIPOS>MOLECULE
*****
 32 36 0 0 0
SMALL
GASTEIGER

@<TRIPOS>ATOM
      1 C         142.9179  138.8264  158.7901 C.2     1  UNL1        0.2685
      2 O         144.0486  139.7211  158.3765 O.2     1  UNL1       -0.2682
      3 N         142.4374  138.8332  160.2110 N.am    1  UNL1       -0.2723
      4 C         143.0875  139.7345  161.2184 C.3     1  UNL1        0.0761
      5 C         142.7679  141.1829  161.4416 C.3     1  UNL1        0.0213
      6 C         143.6543  141.6893  162.5406 C.3     1  UNL1        0.0188
      7 C         144.0046  142.8974  163.3577 C.3     1  UNL1        0.0686
      8 N         145.0887  142.5086  164.3188 N.3     1  UNL1       -0.2975
      9 C         145.4084  141.0601  164.0956 C.3     1  UNL1        0.0686
     10 C         144.5219  140.5538  162.9966 C.3     1  UNL1        0.0188
     11 C         144.1717  139.3456  162.1794 C.3     1  UNL1        0.0213
     12 H         144.7684  142.6487  165.2770 H       1  UNL1        0.1232
     13 C         141.9118  134.6974  155.6566 C.3     1  UNL1        0.1321
     14 N         141.8053  136.0272  156.3424 N.ar    1  UNL1       -0.3057
     15 C         140.7294  137.0489  156.1226 C.ar    1  UNL1        0.1787
     16 N         141.0151  138.2218  157.0127 N.ar    1  UNL1       -0.2192
     17 C         142.2677  137.9251  157.7827 C.ar    1  UNL1        0.1535
     18 C         142.7561  136.5687  157.3684 C.ar    1  UNL1        0.1012
     19 C         141.3066  137.9384  160.6246 C.3     1  UNL1        0.1205
     20 C         140.4782  138.2836  161.8265 C.ar    1  UNL1        0.0008
     21 C         140.7465  137.6116  163.1404 C.ar    1  UNL1       -0.0001
     22 C         139.9181  137.9568  164.3424 C.ar    1  UNL1        0.0325
     23 C         138.8214  138.9740  164.2302 C.ar    1  UNL1        0.1738
     24 F         137.9929  139.3192  165.4322 F       1  UNL1       -0.2010
     25 C         138.5531  139.6459  162.9163 C.ar    1  UNL1        0.1653
     26 C         139.3815  139.3008  161.7144 C.ar    1  UNL1        0.0366
     27 O         137.4563  140.6632  162.8042 O.3     1  UNL1       -0.4769
     28 C         137.7215  142.0947  163.1651 C.3     1  UNL1        0.1660
     29 C         137.7805  142.6574  164.5544 C.3     1  UNL1        0.0435
     30 C         138.0697  144.1254  164.4481 C.3     1  UNL1        0.0038
     31 C         138.1895  144.4700  162.9931 C.3     1  UNL1        0.0038
     32 C         137.9743  143.2150  162.2002 C.3     1  UNL1        0.0435
@<TRIPOS>BOND
     1    13    14    1
     2    14    15   ar
     3    15    16   ar
     4    16    17   ar
     5    17     1    1
     6     1     2    2
     7     1     3   am
     8     3    19    1
     9    19    20    1
    10    20    21   ar
    11    21    22   ar
    12    22    23   ar
    13    23    24    1
    14    23    25   ar
    15    25    27    1
    16    27    28    1
    17    28    29    1
    18    29    30    1
    19    30    31    1
    20    31    32    1
    21    25    26   ar
    22     4     3    1
    23     4     5    1
    24     6     5    1
    25     6     7    1
    26     7     8    1
    27     8     9    1
    28    10     9    1
    29    10    11    1
    30    17    18   ar
    31    18    14   ar
    32    26    20   ar
    33    11     4    1
    34    32    28    1
    35    10     6    1
    36     8    12    1
@<TRIPOS>MOLECULE
*****
 32 36 0 0 0
SMALL
GASTEIGER

@<TRIPOS>ATOM
      1 C         140.6236  139.7108  161.4756 C.2     1  UNL1        0.2685
      2 O         139.1838  139.4462  161.1487 O.2     1  UNL1       -0.2682
      3 N         141.1156  139.5464  162.8830 N.am    1  UNL1       -0.2723
      4 C         140.1679  139.1175  163.9635 C.3     1  UNL1        0.0761
      5 C         139.6195  137.7349  164.1577 C.3     1  UNL1        0.0213
      6 C         138.7147  137.7588  165.3539 C.3     1  UNL1        0.0188
      7 C         137.8167  136.9190  166.2131 C.3     1  UNL1        0.0686
      8 N         137.2509  137.7974  167.2893 N.3     1  UNL1       -0.2975
      9 C         137.7993  139.1800  167.0953 C.3     1  UNL1        0.0686
     10 C         138.7040  139.1562  165.8991 C.3     1  UNL1        0.0188
     11 C         139.6020  139.9959  165.0399 C.3     1  UNL1        0.0213
     12 H         137.5243  137.4421  168.2055 H       1  UNL1        0.1232
     13 C         143.3427  142.6990  158.0759 C.3     1  UNL1        0.1321
     14 N         142.8212  141.5132  158.8323 N.ar    1  UNL1       -0.3057
     15 C         143.2383  140.0865  158.6317 C.ar    1  UNL1        0.1787
     16 N         142.4658  139.2376  159.5975 N.ar    1  UNL1       -0.2192
     17 C         141.5714  140.1397  160.3949 C.ar    1  UNL1        0.1535
     18 C         141.7909  141.5462  159.9220 C.ar    1  UNL1        0.1012
     19 C         142.5556  139.8110  163.2098 C.3     1  UNL1        0.1205
     20 C         142.9884  141.1831  163.6340 C.ar    1  UNL1        0.0008
     21 C         144.3816  141.4061  164.1432 C.ar    1  UNL1       -0.0001
     22 C         144.8144  142.7783  164.5674 C.ar    1  UNL1        0.0325
     23 C         143.8540  143.9273  164.4824 C.ar    1  UNL1        0.1738
     24 F         144.2868  145.2995  164.9066 F       1  UNL1       -0.2010
     25 C         142.4609  143.7043  163.9732 C.ar    1  UNL1        0.1653
     26 C         142.0280  142.3322  163.5490 C.ar    1  UNL1        0.0366
     27 O         141.5004  144.8534  163.8883 O.3     1  UNL1       -0.4769
     28 C         140.0226  144.6007  163.9354 C.3     1  UNL1        0.1660
     29 C         139.0925  144.5864  162.7586 C.3     1  UNL1        0.0435
     30 C         137.7105  144.2947  163.2635 C.3     1  UNL1        0.0038
     31 C         137.7864  144.1288  164.7523 C.3     1  UNL1        0.0038
     32 C         139.2153  144.3179  165.1676 C.3     1  UNL1        0.0435
@<TRIPOS>BOND
     1    13    14    1
     2    14    15   ar
     3    15    16   ar
     4    16    17   ar
     5    17     1    1
     6     1     2    2
     7     1     3   am
     8     3    19    1
     9    19    20    1
    10    20    21   ar
    11    21    22   ar
    12    22    23   ar
    13    23    24    1
    14    23    25   ar
    15    25    27    1
    16    27    28    1
    17    28    29    1
    18    29    30    1
    19    30    31    1
    20    31    32    1
    21    25    26   ar
    22     4     3    1
    23     4     5    1
    24     6     5    1
    25     6     7    1
    26     7     8    1
    27     8     9    1
    28    10     9    1
    29    10    11    1
    30    17    18   ar
    31    18    14   ar
    32    26    20   ar
    33    11     4    1
    34    32    28    1
    35    10     6    1
    36     8    12    1
