@<TRIPOS>MOLECULE
*****
 39 44 0 0 0
SMALL
GASTEIGER

@<TRIPOS>ATOM
      1 C         138.5440  141.8242  164.4582 C.3     1  UNL1        0.0955
      2 C         139.0675  143.0907  165.0682 C.3     1  UNL1        0.0287
      3 C         139.0845  144.3582  164.2661 C.3     1  UNL1        0.0193
      4 C         138.5781  144.3592  162.8542 C.3     1  UNL1        0.0700
      5 C         138.0546  143.0928  162.2443 C.3     1  UNL1        0.0193
      6 C         138.0376  141.8252  163.0463 C.3     1  UNL1        0.0287
      7 C         138.5487  143.6401  163.2544 C.3     1  UNL1        0.1562
      8 O         138.5333  142.4941  163.9795 O.3     1  UNL1       -0.3571
      9 N         138.5951  145.6267  162.0522 N.3     1  UNL1       -0.2919
     10 H         138.2560  146.3678  162.6655 H       1  UNL1        0.1236
     11 C         139.8790  146.1162  161.4505 C.3     1  UNL1        0.1260
     12 C         140.4392  145.4461  160.2310 C.2     1  UNL1        0.1336
     13 F         139.9385  145.8268  158.8693 F       1  UNL1       -0.2074
     14 C         141.5001  144.3952  160.3733 C.2     1  UNL1        0.0289
     15 C         142.0008  144.0144  161.7350 C.ar    1  UNL1        0.0317
     16 C         142.7488  145.0145  162.5658 C.ar    1  UNL1        0.0319
     17 C         143.2495  144.6337  163.9275 C.ar    1  UNL1        0.1403
     18 F         143.9975  145.6338  164.7583 F       1  UNL1       -0.2042
     19 C         143.0021  143.2528  164.4585 C.ar    1  UNL1        0.0319
     20 C         142.2540  142.2527  163.6276 C.ar    1  UNL1        0.0319
     21 C         141.7533  142.6335  162.2659 C.ar    1  UNL1        0.1403
     22 F         141.0053  141.6334  161.4351 F       1  UNL1       -0.2042
     23 C         138.5270  140.5567  165.2602 C.3     1  UNL1        0.0604
     24 O         138.9303  141.0017  170.3515 O.2     1  UNL1       -0.2670
     25 C         140.1284  140.3520  169.7253 C.ar    1  UNL1        0.2611
     26 C         141.2771  139.9116  170.5835 C.ar    1  UNL1        0.0623
     27 C         142.4753  139.2619  169.9572 C.ar    1  UNL1        0.0254
     28 C         142.5248  139.0525  168.4728 C.ar    1  UNL1        0.0972
     29 N         143.5782  138.4393  167.5869 N.ar    1  UNL1       -0.2400
     30 C         143.4857  138.2968  166.0966 C.ar    1  UNL1        0.1282
     31 C         142.2680  138.7866  165.3704 C.ar    1  UNL1        0.1588
     32 F         142.1755  138.6441  163.8801 F       1  UNL1       -0.2027
     33 C         141.1427  139.4188  166.1347 C.ar    1  UNL1        0.0500
     34 C         141.3761  139.4928  167.6146 C.ar    1  UNL1        0.0806
     35 N         140.1779  140.1426  168.2408 N.ar    1  UNL1       -0.2915
     36 C         139.2041  140.4701  167.1480 C.3     1  UNL1        0.1402
     37 C         139.8003  140.0229  165.8463 C.3     1  UNL1        0.1335
     38 O         140.1304  139.6872  164.4221 O.3     1  UNL1       -0.3806
     39 H         139.3998  139.9636  163.8470 H       1  UNL1        0.2108
@<TRIPOS>BOND
     1    24    25    2
     2    25    26   ar
     3    26    27   ar
     4    27    28   ar
     5    28    29   ar
     6    29    30   ar
     7    30    31   ar
     8    31    32    1
     9    31    33   ar
    10    33    34   ar
    11    34    35   ar
    12    35    36    1
    13    36    37    1
    14    37    38    1
    15    37    23    1
    16    23     1    1
    17     1     2    1
    18     2     3    1
    19     3     4    1
    20     4     9    1
    21     9    11    1
    22    11    12    1
    23    12    13    1
    24    12    14    2
    25    14    15    1
    26    15    16   ar
    27    16    17   ar
    28    17    18    1
    29    17    19   ar
    30    19    20   ar
    31    20    21   ar
    32    21    22    1
    33     4     5    1
    34     5     6    1
    35     4     7    1
    36     7     8    1
    37    35    25   ar
    38     6     1    1
    39    34    28   ar
    40     8     1    1
    41    37    33    1
    42    21    15   ar
    43    38    39    1
    44     9    10    1
@<TRIPOS>MOLECULE
*****
 39 44 0 0 0
SMALL
GASTEIGER

@<TRIPOS>ATOM
      1 C         138.6413  138.3319  163.6019 C.3     1  UNL1        0.0955
      2 C         138.8584  137.2829  164.6520 C.3     1  UNL1        0.0287
      3 C         138.8221  137.6567  166.1042 C.3     1  UNL1        0.0193
      4 C         138.5687  139.0794  166.5064 C.3     1  UNL1        0.0700
      5 C         138.3517  140.1283  165.4563 C.3     1  UNL1        0.0193
      6 C         138.3880  139.7546  164.0040 C.3     1  UNL1        0.0287
      7 C         138.5795  138.9226  165.6980 C.3     1  UNL1        0.1562
      8 O         138.6123  138.5847  164.3850 O.3     1  UNL1       -0.3571
      9 N         138.5324  139.4531  167.9586 N.3     1  UNL1       -0.2919
     10 H         138.5900  138.5832  168.4881 H       1  UNL1        0.1236
     11 C         139.5744  140.3730  168.5225 C.3     1  UNL1        0.1260
     12 C         140.8880  139.8208  168.9912 C.2     1  UNL1        0.1336
     13 F         141.0034  139.2213  170.3614 F       1  UNL1       -0.2074
     14 C         142.0860  139.8679  168.0898 C.2     1  UNL1        0.0289
     15 C         141.9706  140.4673  166.7197 C.ar    1  UNL1        0.0317
     16 C         141.7265  141.9390  166.5629 C.ar    1  UNL1        0.0319
     17 C         141.6111  142.5384  165.1928 C.ar    1  UNL1        0.1403
     18 F         141.3671  144.0101  165.0361 F       1  UNL1       -0.2042
     19 C         141.7397  141.6661  163.9793 C.ar    1  UNL1        0.0319
     20 C         141.9837  140.1944  164.1360 C.ar    1  UNL1        0.0319
     21 C         142.0992  139.5950  165.5062 C.ar    1  UNL1        0.1403
     22 F         142.3432  138.1233  165.6628 F       1  UNL1       -0.2042
     23 C         138.6776  137.9581  162.1496 C.3     1  UNL1        0.0604
     24 O         137.5961  140.3309  157.7357 O.2     1  UNL1       -0.2670
     25 C         139.0675  140.1266  157.9438 C.ar    1  UNL1        0.2611
     26 C         140.0444  140.6024  156.9097 C.ar    1  UNL1        0.0623
     27 C         141.5158  140.3981  157.1178 C.ar    1  UNL1        0.0254
     28 C         142.0103  139.7180  158.3599 C.ar    1  UNL1        0.0972
     29 N         143.4036  139.3840  158.8264 N.ar    1  UNL1       -0.2400
     30 C         143.7476  138.6913  160.1116 C.ar    1  UNL1        0.1282
     31 C         142.6574  138.2714  161.0524 C.ar    1  UNL1        0.1588
     32 F         143.0014  137.5787  162.3376 F       1  UNL1       -0.2027
     33 C         141.2232  138.5444  160.7081 C.ar    1  UNL1        0.0500
     34 C         141.0334  139.2422  159.3940 C.ar    1  UNL1        0.0806
     35 N         139.5620  139.4465  159.1859 N.ar    1  UNL1       -0.2915
     36 C         138.8425  138.8749  160.3714 C.3     1  UNL1        0.1402
     37 C         139.8691  138.3174  161.3123 C.3     1  UNL1        0.1335
     38 O         140.6467  137.6847  162.4281 O.3     1  UNL1       -0.3806
     39 H         140.0340  137.3687  163.1105 H       1  UNL1        0.2108
@<TRIPOS>BOND
     1    24    25    2
     2    25    26   ar
     3    26    27   ar
     4    27    28   ar
     5    28    29   ar
     6    29    30   ar
     7    30    31   ar
     8    31    32    1
     9    31    33   ar
    10    33    34   ar
    11    34    35   ar
    12    35    36    1
    13    36    37    1
    14    37    38    1
    15    37    23    1
    16    23     1    1
    17     1     2    1
    18     2     3    1
    19     3     4    1
    20     4     9    1
    21     9    11    1
    22    11    12    1
    23    12    13    1
    24    12    14    2
    25    14    15    1
    26    15    16   ar
    27    16    17   ar
    28    17    18    1
    29    17    19   ar
    30    19    20   ar
    31    20    21   ar
    32    21    22    1
    33     4     5    1
    34     5     6    1
    35     4     7    1
    36     7     8    1
    37    35    25   ar
    38     6     1    1
    39    34    28   ar
    40     8     1    1
    41    37    33    1
    42    21    15   ar
    43    38    39    1
    44     9    10    1
@<TRIPOS>MOLECULE
*****
 39 44 0 0 0
SMALL
GASTEIGER

@<TRIPOS>ATOM
      1 C         138.3654  141.6285  164.7014 C.3     1  UNL1        0.0955
      2 C         139.2527  142.5626  165.4696 C.3     1  UNL1        0.0287
      3 C         140.1463  142.0296  166.5501 C.3     1  UNL1        0.0193
      4 C         140.1527  140.5625  166.8622 C.3     1  UNL1        0.0700
      5 C         139.2654  139.6284  166.0940 C.3     1  UNL1        0.0193
      6 C         138.3717  140.1613  165.0136 C.3     1  UNL1        0.0287
      7 C         139.6459  140.8079  166.2614 C.3     1  UNL1        0.1562
      8 O         138.8379  141.2898  165.2845 O.3     1  UNL1       -0.3571
      9 N         141.0463  140.0294  167.9427 N.3     1  UNL1       -0.2919
     10 H         140.7767  139.0576  168.0950 H       1  UNL1        0.1236
     11 C         142.5349  140.0421  167.7588 C.3     1  UNL1        0.1260
     12 C         143.2090  138.9240  167.0202 C.2     1  UNL1        0.1336
     13 F         143.5983  137.6717  167.7483 F       1  UNL1       -0.2074
     14 C         143.4937  139.0582  165.5536 C.2     1  UNL1        0.0289
     15 C         143.1044  140.3105  164.8255 C.ar    1  UNL1        0.0317
     16 C         143.7378  141.6195  165.1932 C.ar    1  UNL1        0.0319
     17 C         143.3484  142.8718  164.4651 C.ar    1  UNL1        0.1403
     18 F         143.9818  144.1809  164.8329 F       1  UNL1       -0.2042
     19 C         142.3257  142.8152  163.3693 C.ar    1  UNL1        0.0319
     20 C         141.6923  141.5060  163.0016 C.ar    1  UNL1        0.0319
     21 C         142.0817  140.2537  163.7297 C.ar    1  UNL1        0.1403
     22 F         141.4482  138.9447  163.3619 F       1  UNL1       -0.2042
     23 C         137.4717  142.1615  163.6210 C.3     1  UNL1        0.0604
     24 O         140.3738  146.1067  162.1057 O.2     1  UNL1       -0.2670
     25 C         140.1276  145.1090  161.0129 C.ar    1  UNL1        0.2611
     26 C         140.7128  145.3302  159.6496 C.ar    1  UNL1        0.0623
     27 C         140.4666  144.3326  158.5569 C.ar    1  UNL1        0.0254
     28 C         139.6353  143.1137  158.8274 C.ar    1  UNL1        0.0972
     29 N         139.2301  141.9660  157.9393 N.ar    1  UNL1       -0.2400
     30 C         138.3829  140.8006  158.3566 C.ar    1  UNL1        0.1282
     31 C         137.8660  140.7144  159.7620 C.ar    1  UNL1        0.1588
     32 F         137.0187  139.5490  160.1793 F       1  UNL1       -0.2027
     33 C         138.1963  141.7935  160.7502 C.ar    1  UNL1        0.0500
     34 C         139.0501  142.8925  160.1907 C.ar    1  UNL1        0.0806
     35 N         139.2963  143.8902  161.2835 N.ar    1  UNL1       -0.2915
     36 C         138.5946  143.4076  162.5183 C.3     1  UNL1        0.1402
     37 C         137.9147  142.1118  162.1887 C.3     1  UNL1        0.1335
     38 O         137.1423  140.8264  162.1586 O.3     1  UNL1       -0.3806
     39 H         136.7537  140.6621  163.0320 H       1  UNL1        0.2108
@<TRIPOS>BOND
     1    24    25    2
     2    25    26   ar
     3    26    27   ar
     4    27    28   ar
     5    28    29   ar
     6    29    30   ar
     7    30    31   ar
     8    31    32    1
     9    31    33   ar
    10    33    34   ar
    11    34    35   ar
    12    35    36    1
    13    36    37    1
    14    37    38    1
    15    37    23    1
    16    23     1    1
    17     1     2    1
    18     2     3    1
    19     3     4    1
    20     4     9    1
    21     9    11    1
    22    11    12    1
    23    12    13    1
    24    12    14    2
    25    14    15    1
    26    15    16   ar
    27    16    17   ar
    28    17    18    1
    29    17    19   ar
    30    19    20   ar
    31    20    21   ar
    32    21    22    1
    33     4     5    1
    34     5     6    1
    35     4     7    1
    36     7     8    1
    37    35    25   ar
    38     6     1    1
    39    34    28   ar
    40     8     1    1
    41    37    33    1
    42    21    15   ar
    43    38    39    1
    44     9    10    1
@<TRIPOS>MOLECULE
*****
 39 44 0 0 0
SMALL
GASTEIGER

@<TRIPOS>ATOM
      1 C         138.7802  138.9525  164.1606 C.3     1  UNL1        0.0955
      2 C         138.9190  137.8971  163.1036 C.3     1  UNL1        0.0287
      3 C         138.3809  138.1412  161.7248 C.3     1  UNL1        0.0193
      4 C         137.7040  139.4404  161.4030 C.3     1  UNL1        0.0700
      5 C         137.5652  140.4957  162.4600 C.3     1  UNL1        0.0193
      6 C         138.1033  140.2518  163.8388 C.3     1  UNL1        0.0287
      7 C         137.9830  139.3525  162.1728 C.3     1  UNL1        0.1562
      8 O         138.4695  139.1319  163.4194 O.3     1  UNL1       -0.3571
      9 N         137.1658  139.6845  160.0243 N.3     1  UNL1       -0.2919
     10 H         136.2820  140.1810  160.1368 H       1  UNL1        0.1236
     11 C         137.9759  140.4622  159.0299 C.3     1  UNL1        0.1260
     12 C         139.2699  139.9040  158.5161 C.2     1  UNL1        0.1336
     13 F         139.2602  138.7718  157.5323 F       1  UNL1       -0.2074
     14 C         140.5736  140.4779  158.9862 C.2     1  UNL1        0.0289
     15 C         140.5834  141.6101  159.9701 C.ar    1  UNL1        0.0317
     16 C         140.2595  143.0021  159.5149 C.ar    1  UNL1        0.0319
     17 C         140.2692  144.1343  160.4988 C.ar    1  UNL1        0.1403
     18 F         139.9453  145.5263  160.0435 F       1  UNL1       -0.2042
     19 C         140.6029  143.8745  161.9379 C.ar    1  UNL1        0.0319
     20 C         140.9268  142.4823  162.3931 C.ar    1  UNL1        0.0319
     21 C         140.9171  141.3501  161.4092 C.ar    1  UNL1        0.1403
     22 F         141.2410  139.9581  161.8645 F       1  UNL1       -0.2042
     23 C         139.3183  138.7084  165.5393 C.3     1  UNL1        0.0604
     24 O         138.1287  140.1044  170.3266 O.2     1  UNL1       -0.2670
     25 C         139.3678  140.7760  169.8132 C.ar    1  UNL1        0.2611
     26 C         140.1137  141.7418  170.6855 C.ar    1  UNL1        0.0623
     27 C         141.3528  142.4134  170.1720 C.ar    1  UNL1        0.0254
     28 C         141.8459  142.1193  168.7863 C.ar    1  UNL1        0.0972
     29 N         143.0369  142.6358  168.0213 N.ar    1  UNL1       -0.2400
     30 C         143.4075  142.2445  166.6215 C.ar    1  UNL1        0.1282
     31 C         142.5611  141.2612  165.8686 C.ar    1  UNL1        0.1588
     32 F         142.9318  140.8699  164.4688 F       1  UNL1       -0.2027
     33 C         141.3441  140.6693  166.5155 C.ar    1  UNL1        0.0500
     34 C         141.1000  141.1536  167.9140 C.ar    1  UNL1        0.0806
     35 N         139.8609  140.4819  168.4275 N.ar    1  UNL1       -0.2915
     36 C         139.3393  139.5826  167.3462 C.3     1  UNL1        0.1402
     37 C         140.2559  139.6984  166.1645 C.3     1  UNL1        0.1335
     38 O         140.9766  139.6073  164.8522 O.3     1  UNL1       -0.3806
     39 H         140.5110  138.9866  164.2700 H       1  UNL1        0.2108
@<TRIPOS>BOND
     1    24    25    2
     2    25    26   ar
     3    26    27   ar
     4    27    28   ar
     5    28    29   ar
     6    29    30   ar
     7    30    31   ar
     8    31    32    1
     9    31    33   ar
    10    33    34   ar
    11    34    35   ar
    12    35    36    1
    13    36    37    1
    14    37    38    1
    15    37    23    1
    16    23     1    1
    17     1     2    1
    18     2     3    1
    19     3     4    1
    20     4     9    1
    21     9    11    1
    22    11    12    1
    23    12    13    1
    24    12    14    2
    25    14    15    1
    26    15    16   ar
    27    16    17   ar
    28    17    18    1
    29    17    19   ar
    30    19    20   ar
    31    20    21   ar
    32    21    22    1
    33     4     5    1
    34     5     6    1
    35     4     7    1
    36     7     8    1
    37    35    25   ar
    38     6     1    1
    39    34    28   ar
    40     8     1    1
    41    37    33    1
    42    21    15   ar
    43    38    39    1
    44     9    10    1
@<TRIPOS>MOLECULE
*****
 39 44 0 0 0
SMALL
GASTEIGER

@<TRIPOS>ATOM
      1 C         142.9391  141.7646  164.1960 C.3     1  UNL1        0.0955
      2 C         143.0199  141.3343  162.7612 C.3     1  UNL1        0.0287
      3 C         142.8235  142.3389  161.6648 C.3     1  UNL1        0.0193
      4 C         142.5462  143.7738  162.0030 C.3     1  UNL1        0.0700
      5 C         142.4654  144.2040  163.4377 C.3     1  UNL1        0.0193
      6 C         142.6618  143.1994  164.5342 C.3     1  UNL1        0.0287
      7 C         142.6469  143.2595  162.6383 C.3     1  UNL1        0.1562
      8 O         142.8245  142.3512  163.6297 O.3     1  UNL1       -0.3571
      9 N         142.3498  144.7783  160.9065 N.3     1  UNL1       -0.2919
     10 H         142.7379  144.3673  160.0576 H       1  UNL1        0.1236
     11 C         140.9693  145.2552  160.5648 C.3     1  UNL1        0.1260
     12 C         140.1026  144.4465  159.6456 C.2     1  UNL1        0.1336
     13 F         140.1728  144.6651  158.1633 F       1  UNL1       -0.2074
     14 C         139.1657  143.4193  160.2086 C.2     1  UNL1        0.0289
     15 C         139.0954  143.2006  161.6909 C.ar    1  UNL1        0.0317
     16 C         138.8371  144.3588  162.6085 C.ar    1  UNL1        0.0319
     17 C         138.7669  144.1402  164.0908 C.ar    1  UNL1        0.1403
     18 F         138.5086  145.2984  165.0083 F       1  UNL1       -0.2042
     19 C         138.9548  142.7633  164.6556 C.ar    1  UNL1        0.0319
     20 C         139.2131  141.6051  163.7379 C.ar    1  UNL1        0.0319
     21 C         139.2834  141.8237  162.2556 C.ar    1  UNL1        0.1403
     22 F         139.5416  140.6655  161.3381 F       1  UNL1       -0.2042
     23 C         143.1355  140.7600  165.2925 C.3     1  UNL1        0.0604
     24 O         144.2684  142.7786  169.8668 O.2     1  UNL1       -0.2670
     25 C         142.9243  142.1133  169.8386 C.ar    1  UNL1        0.2611
     26 C         142.0718  142.0924  171.0726 C.ar    1  UNL1        0.0623
     27 C         140.7277  141.4271  171.0445 C.ar    1  UNL1        0.0254
     28 C         140.2361  140.7828  169.7823 C.ar    1  UNL1        0.0972
     29 N         138.9542  140.0561  169.4677 N.ar    1  UNL1       -0.2400
     30 C         138.5978  139.4566  168.1397 C.ar    1  UNL1        0.1282
     31 C         139.5565  139.5565  166.9903 C.ar    1  UNL1        0.1588
     32 F         139.2001  138.9570  165.6623 F       1  UNL1       -0.2027
     33 C         140.8714  140.2557  167.1690 C.ar    1  UNL1        0.0500
     34 C         141.0886  140.8037  168.5483 C.ar    1  UNL1        0.0806
     35 N         142.4327  141.4689  168.5765 N.ar    1  UNL1       -0.2915
     36 C         143.0462  141.3322  167.2145 C.3     1  UNL1        0.1402
     37 C         142.0813  140.5824  166.3446 C.3     1  UNL1        0.1335
     38 O         141.3368  139.8697  165.2548 O.3     1  UNL1       -0.3806
     39 H         141.8702  139.8706  164.4447 H       1  UNL1        0.2108
@<TRIPOS>BOND
     1    24    25    2
     2    25    26   ar
     3    26    27   ar
     4    27    28   ar
     5    28    29   ar
     6    29    30   ar
     7    30    31   ar
     8    31    32    1
     9    31    33   ar
    10    33    34   ar
    11    34    35   ar
    12    35    36    1
    13    36    37    1
    14    37    38    1
    15    37    23    1
    16    23     1    1
    17     1     2    1
    18     2     3    1
    19     3     4    1
    20     4     9    1
    21     9    11    1
    22    11    12    1
    23    12    13    1
    24    12    14    2
    25    14    15    1
    26    15    16   ar
    27    16    17   ar
    28    17    18    1
    29    17    19   ar
    30    19    20   ar
    31    20    21   ar
    32    21    22    1
    33     4     5    1
    34     5     6    1
    35     4     7    1
    36     7     8    1
    37    35    25   ar
    38     6     1    1
    39    34    28   ar
    40     8     1    1
    41    37    33    1
    42    21    15   ar
    43    38    39    1
    44     9    10    1
@<TRIPOS>MOLECULE
*****
 39 44 0 0 0
SMALL
GASTEIGER

@<TRIPOS>ATOM
      1 C         143.1802  139.0501  162.8873 C.3     1  UNL1        0.0955
      2 C         144.2589  139.7602  163.6504 C.3     1  UNL1        0.0287
      3 C         144.3645  139.5870  165.1367 C.3     1  UNL1        0.0193
      4 C         143.3915  138.7036  165.8598 C.3     1  UNL1        0.0700
      5 C         142.3129  137.9935  165.0968 C.3     1  UNL1        0.0193
      6 C         142.2072  138.1667  163.6105 C.3     1  UNL1        0.0287
      7 C         143.2938  138.7676  165.0447 C.3     1  UNL1        0.1562
      8 O         143.1982  138.9242  163.7009 O.3     1  UNL1       -0.3571
      9 N         143.4972  138.5304  167.3460 N.3     1  UNL1       -0.2919
     10 H         144.4361  138.8280  167.6112 H       1  UNL1        0.1236
     11 C         142.5430  139.2476  168.2543 C.3     1  UNL1        0.1260
     12 C         142.5302  140.7470  168.2955 C.2     1  UNL1        0.1336
     13 F         143.6028  141.4859  169.0396 F       1  UNL1       -0.2074
     14 C         141.4450  141.5075  167.5928 C.2     1  UNL1        0.0289
     15 C         140.3724  140.7686  166.8487 C.ar    1  UNL1        0.0317
     16 C         139.3519  139.9684  167.6025 C.ar    1  UNL1        0.0319
     17 C         138.2793  139.2295  166.8584 C.ar    1  UNL1        0.1403
     18 F         137.2588  138.4294  167.6122 F       1  UNL1       -0.2042
     19 C         138.2273  139.2908  165.3606 C.ar    1  UNL1        0.0319
     20 C         139.2479  140.0910  164.6068 C.ar    1  UNL1        0.0319
     21 C         140.3204  140.8299  165.3509 C.ar    1  UNL1        0.1403
     22 F         141.3410  141.6301  164.5970 F       1  UNL1       -0.2042
     23 C         143.0745  139.2233  161.4011 C.3     1  UNL1        0.0604
     24 O         143.4730  144.3259  161.6966 O.2     1  UNL1       -0.2670
     25 C         142.2069  143.8766  161.0295 C.ar    1  UNL1        0.2611
     26 C         141.2200  144.8911  160.5329 C.ar    1  UNL1        0.0623
     27 C         139.9539  144.4417  159.8658 C.ar    1  UNL1        0.0254
     28 C         139.6747  142.9779  159.6952 C.ar    1  UNL1        0.0972
     29 N         138.5095  142.2506  159.0758 N.ar    1  UNL1       -0.2400
     30 C         138.3678  140.7606  158.9763 C.ar    1  UNL1        0.1282
     31 C         139.4427  139.8671  159.5207 C.ar    1  UNL1        0.1588
     32 F         139.3011  138.3772  159.4213 F       1  UNL1       -0.2027
     33 C         140.6591  140.4636  160.1645 C.ar    1  UNL1        0.0500
     34 C         140.6617  141.9634  160.1917 C.ar    1  UNL1        0.0806
     35 N         141.9278  142.4127  160.8589 N.ar    1  UNL1       -0.2915
     36 C         142.7077  141.1906  161.2440 C.3     1  UNL1        0.1402
     37 C         141.9236  139.9860  160.8149 C.3     1  UNL1        0.1335
     38 O         141.3802  138.6220  160.5083 O.3     1  UNL1       -0.3806
     39 H         142.0034  137.9478  160.8213 H       1  UNL1        0.2108
@<TRIPOS>BOND
     1    24    25    2
     2    25    26   ar
     3    26    27   ar
     4    27    28   ar
     5    28    29   ar
     6    29    30   ar
     7    30    31   ar
     8    31    32    1
     9    31    33   ar
    10    33    34   ar
    11    34    35   ar
    12    35    36    1
    13    36    37    1
    14    37    38    1
    15    37    23    1
    16    23     1    1
    17     1     2    1
    18     2     3    1
    19     3     4    1
    20     4     9    1
    21     9    11    1
    22    11    12    1
    23    12    13    1
    24    12    14    2
    25    14    15    1
    26    15    16   ar
    27    16    17   ar
    28    17    18    1
    29    17    19   ar
    30    19    20   ar
    31    20    21   ar
    32    21    22    1
    33     4     5    1
    34     5     6    1
    35     4     7    1
    36     7     8    1
    37    35    25   ar
    38     6     1    1
    39    34    28   ar
    40     8     1    1
    41    37    33    1
    42    21    15   ar
    43    38    39    1
    44     9    10    1
@<TRIPOS>MOLECULE
*****
 39 44 0 0 0
SMALL
GASTEIGER

@<TRIPOS>ATOM
      1 C         138.4662  139.0214  163.1243 C.3     1  UNL1        0.0955
      2 C         138.8335  137.7924  163.9021 C.3     1  UNL1        0.0287
      3 C         138.8974  137.8440  165.3998 C.3     1  UNL1        0.0193
      4 C         138.5942  139.1244  166.1198 C.3     1  UNL1        0.0700
      5 C         138.2270  140.3534  165.3421 C.3     1  UNL1        0.0193
      6 C         138.1630  140.3019  163.8443 C.3     1  UNL1        0.0287
      7 C         138.5461  139.1450  165.2980 C.3     1  UNL1        0.1562
      8 O         138.4883  139.0984  163.9438 O.3     1  UNL1       -0.3571
      9 N         138.6582  139.1760  167.6176 N.3     1  UNL1       -0.2919
     10 H         138.9749  138.2583  167.9306 H       1  UNL1        0.1236
     11 C         139.5306  140.1899  168.2965 C.3     1  UNL1        0.1260
     12 C         140.8649  139.7824  168.8475 C.2     1  UNL1        0.1336
     13 F         140.9739  139.2881  170.2596 F       1  UNL1       -0.2074
     14 C         142.0902  139.8692  167.9867 C.2     1  UNL1        0.0289
     15 C         141.9813  140.3635  166.5747 C.ar    1  UNL1        0.0317
     16 C         141.6555  141.8029  166.3069 C.ar    1  UNL1        0.0319
     17 C         141.5465  142.2972  164.8949 C.ar    1  UNL1        0.1403
     18 F         141.2207  143.7367  164.6272 F       1  UNL1       -0.2042
     19 C         141.7634  141.3520  163.7505 C.ar    1  UNL1        0.0319
     20 C         142.0892  139.9124  164.0183 C.ar    1  UNL1        0.0319
     21 C         142.1981  139.4181  165.4304 C.ar    1  UNL1        0.1403
     22 F         142.5239  137.9786  165.6980 F       1  UNL1       -0.2042
     23 C         138.4023  138.9699  161.6265 C.3     1  UNL1        0.0604
     24 O         143.3264  137.6498  161.0857 O.2     1  UNL1       -0.2670
     25 C         142.9842  138.9298  160.3826 C.ar    1  UNL1        0.2611
     26 C         144.0425  139.6754  159.6249 C.ar    1  UNL1        0.0623
     27 C         143.7003  140.9555  158.9218 C.ar    1  UNL1        0.0254
     28 C         142.2999  141.4900  158.9764 C.ar    1  UNL1        0.0972
     29 N         141.6804  142.7261  158.3776 N.ar    1  UNL1       -0.2400
     30 C         140.2444  143.1355  158.5201 C.ar    1  UNL1        0.1282
     31 C         139.2971  142.2845  159.3128 C.ar    1  UNL1        0.1588
     32 F         137.8612  142.6938  159.4553 F       1  UNL1       -0.2027
     33 C         139.7858  141.0241  159.9630 C.ar    1  UNL1        0.0500
     34 C         141.2417  140.7445  159.7342 C.ar    1  UNL1        0.0806
     35 N         141.5838  139.4644  160.4373 N.ar    1  UNL1       -0.2915
     36 C         140.3395  138.9530  161.1006 C.3     1  UNL1        0.1402
     37 C         139.2282  139.9169  160.8075 C.3     1  UNL1        0.1335
     38 O         137.9443  140.6830  160.6856 O.3     1  UNL1       -0.3806
     39 H         137.2435  140.2184  161.1693 H       1  UNL1        0.2108
@<TRIPOS>BOND
     1    24    25    2
     2    25    26   ar
     3    26    27   ar
     4    27    28   ar
     5    28    29   ar
     6    29    30   ar
     7    30    31   ar
     8    31    32    1
     9    31    33   ar
    10    33    34   ar
    11    34    35   ar
    12    35    36    1
    13    36    37    1
    14    37    38    1
    15    37    23    1
    16    23     1    1
    17     1     2    1
    18     2     3    1
    19     3     4    1
    20     4     9    1
    21     9    11    1
    22    11    12    1
    23    12    13    1
    24    12    14    2
    25    14    15    1
    26    15    16   ar
    27    16    17   ar
    28    17    18    1
    29    17    19   ar
    30    19    20   ar
    31    20    21   ar
    32    21    22    1
    33     4     5    1
    34     5     6    1
    35     4     7    1
    36     7     8    1
    37    35    25   ar
    38     6     1    1
    39    34    28   ar
    40     8     1    1
    41    37    33    1
    42    21    15   ar
    43    38    39    1
    44     9    10    1
@<TRIPOS>MOLECULE
*****
 39 44 0 0 0
SMALL
GASTEIGER

@<TRIPOS>ATOM
      1 C         138.5194  139.1672  163.2037 C.3     1  UNL1        0.0955
      2 C         138.1654  140.4071  163.9703 C.3     1  UNL1        0.0287
      3 C         138.1878  140.3935  165.4701 C.3     1  UNL1        0.0193
      4 C         138.5641  139.1402  166.2033 C.3     1  UNL1        0.0700
      5 C         138.9180  137.9005  165.4367 C.3     1  UNL1        0.0193
      6 C         138.8957  137.9139  163.9369 C.3     1  UNL1        0.0287
      7 C         138.5660  139.0992  165.3808 C.3     1  UNL1        0.1562
      8 O         138.5458  139.1114  164.0248 O.3     1  UNL1       -0.3571
      9 N         138.5865  139.1267  167.7031 N.3     1  UNL1       -0.2919
     10 H         138.9445  138.2139  167.9840 H       1  UNL1        0.1236
     11 C         139.3845  140.1536  168.4504 C.3     1  UNL1        0.1260
     12 C         140.7261  139.7942  169.0170 C.2     1  UNL1        0.1336
     13 F         140.8326  139.2712  170.4188 F       1  UNL1       -0.2074
     14 C         141.9612  139.9578  168.1817 C.2     1  UNL1        0.0289
     15 C         141.8548  140.4808  166.7799 C.ar    1  UNL1        0.0317
     16 C         142.1008  139.5656  165.6172 C.ar    1  UNL1        0.0319
     17 C         141.9943  140.0886  164.2154 C.ar    1  UNL1        0.1403
     18 F         142.2403  139.1733  163.0527 F       1  UNL1       -0.2042
     19 C         141.6419  141.5269  163.9762 C.ar    1  UNL1        0.0319
     20 C         141.3959  142.4421  165.1390 C.ar    1  UNL1        0.0319
     21 C         141.5024  141.9191  166.5408 C.ar    1  UNL1        0.1403
     22 F         141.2564  142.8344  167.7034 F       1  UNL1       -0.2042
     23 C         138.4970  139.1807  161.7039 C.3     1  UNL1        0.0604
     24 O         138.6655  144.2970  161.4245 O.2     1  UNL1       -0.2670
     25 C         139.8103  143.6353  160.7162 C.ar    1  UNL1        0.2611
     26 C         140.8481  144.4697  160.0258 C.ar    1  UNL1        0.0623
     27 C         141.9929  143.8080  159.3175 C.ar    1  UNL1        0.0254
     28 C         142.0998  142.3120  159.2995 C.ar    1  UNL1        0.0972
     29 N         143.1199  141.3927  158.6793 N.ar    1  UNL1       -0.2400
     30 C         143.0945  139.8944  158.7459 C.ar    1  UNL1        0.1282
     31 C         141.9868  139.1948  159.4763 C.ar    1  UNL1        0.1588
     32 F         141.9614  137.6965  159.5429 F       1  UNL1       -0.2027
     33 C         140.9045  139.9935  160.1402 C.ar    1  UNL1        0.0500
     34 C         141.0619  141.4776  159.9898 C.ar    1  UNL1        0.0806
     35 N         139.9172  142.1393  160.6982 N.ar    1  UNL1       -0.2915
     36 C         139.0523  141.0641  161.2863 C.3     1  UNL1        0.1402
     37 C         139.6624  139.7379  160.9414 C.3     1  UNL1        0.1335
     38 O         140.0290  138.2953  160.7560 O.3     1  UNL1       -0.3806
     39 H         139.3701  137.7352  161.1953 H       1  UNL1        0.2108
@<TRIPOS>BOND
     1    24    25    2
     2    25    26   ar
     3    26    27   ar
     4    27    28   ar
     5    28    29   ar
     6    29    30   ar
     7    30    31   ar
     8    31    32    1
     9    31    33   ar
    10    33    34   ar
    11    34    35   ar
    12    35    36    1
    13    36    37    1
    14    37    38    1
    15    37    23    1
    16    23     1    1
    17     1     2    1
    18     2     3    1
    19     3     4    1
    20     4     9    1
    21     9    11    1
    22    11    12    1
    23    12    13    1
    24    12    14    2
    25    14    15    1
    26    15    16   ar
    27    16    17   ar
    28    17    18    1
    29    17    19   ar
    30    19    20   ar
    31    20    21   ar
    32    21    22    1
    33     4     5    1
    34     5     6    1
    35     4     7    1
    36     7     8    1
    37    35    25   ar
    38     6     1    1
    39    34    28   ar
    40     8     1    1
    41    37    33    1
    42    21    15   ar
    43    38    39    1
    44     9    10    1
@<TRIPOS>MOLECULE
*****
 39 44 0 0 0
SMALL
GASTEIGER

@<TRIPOS>ATOM
      1 C         144.6208  141.4885  161.9198 C.3     1  UNL1        0.0955
      2 C         143.9304  140.1641  161.7796 C.3     1  UNL1        0.0287
      3 C         144.0450  139.1396  162.8692 C.3     1  UNL1        0.0193
      4 C         144.8499  139.4394  164.0990 C.3     1  UNL1        0.0700
      5 C         145.5402  140.7637  164.2391 C.3     1  UNL1        0.0193
      6 C         145.4257  141.7883  163.1495 C.3     1  UNL1        0.0287
      7 C         144.8162  140.0323  163.5285 C.3     1  UNL1        0.1562
      8 O         144.7126  140.9587  162.5433 O.3     1  UNL1       -0.3571
      9 N         144.9644  138.4149  165.1886 N.3     1  UNL1       -0.2919
     10 H         145.8328  138.6106  165.6867 H       1  UNL1        0.1236
     11 C         143.8869  138.2993  166.2256 C.3     1  UNL1        0.1260
     12 C         142.4449  138.3878  165.8219 C.2     1  UNL1        0.1336
     13 F         141.9012  137.4617  164.7747 F       1  UNL1       -0.2074
     14 C         141.5467  139.4022  166.4655 C.2     1  UNL1        0.0289
     15 C         142.0904  140.3282  167.5128 C.ar    1  UNL1        0.0317
     16 C         141.9175  140.0009  168.9663 C.ar    1  UNL1        0.0319
     17 C         142.4612  140.9269  170.0136 C.ar    1  UNL1        0.1403
     18 F         142.2882  140.5994  171.4671 F       1  UNL1       -0.2042
     19 C         143.1780  142.1804  169.6073 C.ar    1  UNL1        0.0319
     20 C         143.3509  142.5077  168.1537 C.ar    1  UNL1        0.0319
     21 C         142.8072  141.5817  167.1064 C.ar    1  UNL1        0.1403
     22 F         142.9802  141.9091  165.6528 F       1  UNL1       -0.2042
     23 C         144.5063  142.5130  160.8302 C.3     1  UNL1        0.0604
     24 O         142.9753  143.6273  156.0660 O.2     1  UNL1       -0.2670
     25 C         142.1011  144.2412  157.1191 C.ar    1  UNL1        0.2611
     26 C         140.9228  145.0795  156.7205 C.ar    1  UNL1        0.0623
     27 C         140.0486  145.6934  157.7736 C.ar    1  UNL1        0.0254
     28 C         140.3527  145.4690  159.2251 C.ar    1  UNL1        0.0972
     29 N         139.6624  145.9514  160.4746 N.ar    1  UNL1       -0.2400
     30 C         140.0887  145.6406  161.8788 C.ar    1  UNL1        0.1282
     31 C         141.2950  144.7834  162.1240 C.ar    1  UNL1        0.1588
     32 F         141.7213  144.4727  163.5281 F       1  UNL1       -0.2027
     33 C         142.0749  144.2370  160.9650 C.ar    1  UNL1        0.0500
     34 C         141.5310  144.6308  159.6237 C.ar    1  UNL1        0.0806
     35 N         142.4052  144.0169  158.5706 N.ar    1  UNL1       -0.2915
     36 C         143.4894  143.2437  159.2612 C.3     1  UNL1        0.1402
     37 C         143.2853  143.3797  160.7410 C.3     1  UNL1        0.1335
     38 O         143.3364  143.3346  162.2394 O.3     1  UNL1       -0.3806
     39 H         144.0926  142.7965  162.5211 H       1  UNL1        0.2108
@<TRIPOS>BOND
     1    24    25    2
     2    25    26   ar
     3    26    27   ar
     4    27    28   ar
     5    28    29   ar
     6    29    30   ar
     7    30    31   ar
     8    31    32    1
     9    31    33   ar
    10    33    34   ar
    11    34    35   ar
    12    35    36    1
    13    36    37    1
    14    37    38    1
    15    37    23    1
    16    23     1    1
    17     1     2    1
    18     2     3    1
    19     3     4    1
    20     4     9    1
    21     9    11    1
    22    11    12    1
    23    12    13    1
    24    12    14    2
    25    14    15    1
    26    15    16   ar
    27    16    17   ar
    28    17    18    1
    29    17    19   ar
    30    19    20   ar
    31    20    21   ar
    32    21    22    1
    33     4     5    1
    34     5     6    1
    35     4     7    1
    36     7     8    1
    37    35    25   ar
    38     6     1    1
    39    34    28   ar
    40     8     1    1
    41    37    33    1
    42    21    15   ar
    43    38    39    1
    44     9    10    1
