@<TRIPOS>MOLECULE
*****
 36 41 0 0 0
SMALL
GASTEIGER

@<TRIPOS>ATOM
      1 N         143.1582  142.9157  164.5794 N.3     1  UNL1       -0.2703
      2 C         142.1240  144.0003  164.6427 C.3     1  UNL1        0.0736
      3 C         141.7501  144.7535  163.4006 C.3     1  UNL1        0.0331
      4 C         142.4105  144.4221  162.0952 C.3     1  UNL1        0.0570
      5 C         143.4448  143.3375  162.0319 C.3     1  UNL1        0.0331
      6 C         143.8186  142.5843  163.2740 C.3     1  UNL1        0.0736
      7 N         142.0366  145.1753  160.8530 N.3     1  UNL1       -0.2934
      8 H         142.8319  145.1089  160.2178 H       1  UNL1        0.1236
      9 C         140.8220  144.7741  160.0696 C.3     1  UNL1        0.1152
     10 C         139.9906  143.6094  160.5191 C.ar    1  UNL1        0.0782
     11 C         140.3740  142.2155  160.1193 C.ar    1  UNL1        0.0562
     12 C         139.5427  141.0507  160.5689 C.ar    1  UNL1        0.1752
     13 C         138.3279  141.2799  161.4183 C.ar    1  UNL1        0.1914
     14 C         137.9444  142.6738  161.8182 C.ar    1  UNL1        0.1384
     15 N         138.7758  143.8385  161.3686 N.ar    1  UNL1       -0.2434
     16 O         137.4964  140.1150  161.8679 O.3     1  UNL1       -0.4668
     17 C         137.8799  138.7211  161.4680 C.3     1  UNL1        0.2527
     18 C         139.0947  138.4920  160.6185 C.3     1  UNL1        0.2526
     19 O         139.9261  139.6567  160.1690 O.3     1  UNL1       -0.4683
     20 C         143.5321  142.1625  165.8216 C.3     1  UNL1        0.1056
     21 O         139.8036  138.7129  164.3662 O.2     1  UNL1       -0.2653
     22 C         139.7070  139.2525  165.7625 C.ar    1  UNL1        0.2803
     23 C         138.5931  138.8076  166.6631 C.ar    1  UNL1        0.1594
     24 N         138.4964  139.3472  168.0593 N.ar    1  UNL1       -0.2374
     25 C         139.5138  140.3317  168.5549 C.ar    1  UNL1        0.0972
     26 C         139.4172  140.8713  169.9512 C.ar    1  UNL1        0.0229
     27 C         140.4345  141.8558  170.4468 C.ar    1  UNL1        0.0310
     28 C         141.5485  142.3008  169.5462 C.ar    1  UNL1        0.1399
     29 F         142.5659  143.2853  170.0419 F       1  UNL1       -0.2044
     30 C         141.6452  141.7612  168.1500 C.ar    1  UNL1        0.0497
     31 C         140.6277  140.7766  167.6544 C.ar    1  UNL1        0.0806
     32 N         140.7244  140.2370  166.2581 N.ar    1  UNL1       -0.2902
     33 C         141.9482  140.9321  165.7391 C.3     1  UNL1        0.1415
     34 C         142.4798  141.8121  166.8314 C.3     1  UNL1        0.1458
     35 O         143.2314  142.7653  167.7126 O.3     1  UNL1       -0.3793
     36 H         143.9903  143.1246  167.2270 H       1  UNL1        0.2108
@<TRIPOS>BOND
     1    21    22    2
     2    22    23   ar
     3    23    24   ar
     4    24    25   ar
     5    25    26   ar
     6    26    27   ar
     7    27    28   ar
     8    28    29    1
     9    28    30   ar
    10    30    31   ar
    11    31    32   ar
    12    32    33    1
    13    33    34    1
    14    34    35    1
    15    34    20    1
    16    20     1    1
    17     1     2    1
    18     2     3    1
    19     3     4    1
    20     4     7    1
    21     7     9    1
    22     9    10    1
    23    10    11   ar
    24    11    12   ar
    25    12    13   ar
    26    13    14   ar
    27    14    15   ar
    28    13    16    1
    29    16    17    1
    30    17    18    1
    31    18    19    1
    32     4     5    1
    33     5     6    1
    34    32    22   ar
    35     6     1    1
    36    31    25   ar
    37    15    10   ar
    38    34    30    1
    39    19    12    1
    40    35    36    1
    41     7     8    1
@<TRIPOS>MOLECULE
*****
 36 41 0 0 0
SMALL
GASTEIGER

@<TRIPOS>ATOM
      1 N         138.6501  139.3930  164.5721 N.3     1  UNL1       -0.2703
      2 C         137.8470  140.6591  164.5256 C.3     1  UNL1        0.0736
      3 C         137.4953  141.2760  163.2044 C.3     1  UNL1        0.0331
      4 C         137.9466  140.6268  161.9297 C.3     1  UNL1        0.0570
      5 C         138.7497  139.3608  161.9761 C.3     1  UNL1        0.0331
      6 C         139.1014  138.7439  163.2974 C.3     1  UNL1        0.0736
      7 N         137.5948  141.2438  160.6084 N.3     1  UNL1       -0.2934
      8 H         136.6756  141.6720  160.7187 H       1  UNL1        0.1236
      9 C         138.4888  142.2868  160.0059 C.3     1  UNL1        0.1152
     10 C         139.4088  143.0833  160.8828 C.ar    1  UNL1        0.0782
     11 C         140.8732  142.7611  160.9220 C.ar    1  UNL1        0.0562
     12 C         141.7932  143.5576  161.7989 C.ar    1  UNL1        0.1752
     13 C         141.2489  144.6764  162.6366 C.ar    1  UNL1        0.1914
     14 C         139.7845  144.9988  162.5974 C.ar    1  UNL1        0.1384
     15 N         138.8644  144.2022  161.7205 N.ar    1  UNL1       -0.2434
     16 O         142.1690  145.4731  163.5136 O.3     1  UNL1       -0.4668
     17 C         143.6334  145.1507  163.5528 C.3     1  UNL1        0.2527
     18 C         144.1778  144.0318  162.7151 C.3     1  UNL1        0.2526
     19 O         143.2577  143.2353  161.8382 O.3     1  UNL1       -0.4683
     20 C         139.0019  138.7761  165.8933 C.3     1  UNL1        0.1056
     21 O         143.5031  141.3701  164.9291 O.2     1  UNL1       -0.2653
     22 C         142.9009  141.5587  166.2900 C.ar    1  UNL1        0.2803
     23 C         143.5764  142.4468  167.2925 C.ar    1  UNL1        0.1594
     24 N         142.9742  142.6354  168.6533 N.ar    1  UNL1       -0.2374
     25 C         141.6966  141.9360  169.0116 C.ar    1  UNL1        0.0972
     26 C         141.0945  142.1246  170.3724 C.ar    1  UNL1        0.0229
     27 C         139.8169  141.4251  170.7308 C.ar    1  UNL1        0.0310
     28 C         139.1414  140.5370  169.7282 C.ar    1  UNL1        0.1399
     29 F         137.8638  139.8375  170.0866 F       1  UNL1       -0.2044
     30 C         139.7435  140.3484  168.3674 C.ar    1  UNL1        0.0497
     31 C         141.0212  141.0479  168.0091 C.ar    1  UNL1        0.0806
     32 N         141.6233  140.8593  166.6483 N.ar    1  UNL1       -0.2902
     33 C         140.6455  139.9235  166.0015 C.3     1  UNL1        0.1415
     34 C         139.5602  139.6285  166.9941 C.3     1  UNL1        0.1458
     35 O         138.3582  139.1554  167.7565 O.3     1  UNL1       -0.3793
     36 H         137.8338  138.5611  167.1972 H       1  UNL1        0.2108
@<TRIPOS>BOND
     1    21    22    2
     2    22    23   ar
     3    23    24   ar
     4    24    25   ar
     5    25    26   ar
     6    26    27   ar
     7    27    28   ar
     8    28    29    1
     9    28    30   ar
    10    30    31   ar
    11    31    32   ar
    12    32    33    1
    13    33    34    1
    14    34    35    1
    15    34    20    1
    16    20     1    1
    17     1     2    1
    18     2     3    1
    19     3     4    1
    20     4     7    1
    21     7     9    1
    22     9    10    1
    23    10    11   ar
    24    11    12   ar
    25    12    13   ar
    26    13    14   ar
    27    14    15   ar
    28    13    16    1
    29    16    17    1
    30    17    18    1
    31    18    19    1
    32     4     5    1
    33     5     6    1
    34    32    22   ar
    35     6     1    1
    36    31    25   ar
    37    15    10   ar
    38    34    30    1
    39    19    12    1
    40    35    36    1
    41     7     8    1
@<TRIPOS>MOLECULE
*****
 36 41 0 0 0
SMALL
GASTEIGER

@<TRIPOS>ATOM
      1 N         143.1378  142.8461  164.5037 N.3     1  UNL1       -0.2703
      2 C         142.1181  143.9462  164.4912 C.3     1  UNL1        0.0736
      3 C         141.8012  144.6605  163.2109 C.3     1  UNL1        0.0331
      4 C         142.5040  144.2748  161.9430 C.3     1  UNL1        0.0570
      5 C         143.5237  143.1747  161.9556 C.3     1  UNL1        0.0331
      6 C         143.8405  142.4604  163.2359 C.3     1  UNL1        0.0736
      7 N         142.1871  144.9892  160.6626 N.3     1  UNL1       -0.2934
      8 H         143.0120  144.9080  160.0682 H       1  UNL1        0.1236
      9 C         141.0127  144.5590  159.8346 C.3     1  UNL1        0.1152
     10 C         140.1259  143.4472  160.3115 C.ar    1  UNL1        0.0782
     11 C         140.4982  142.0204  160.0367 C.ar    1  UNL1        0.0562
     12 C         139.6114  140.9086  160.5136 C.ar    1  UNL1        0.1752
     13 C         138.3522  141.2236  161.2653 C.ar    1  UNL1        0.1914
     14 C         137.9798  142.6504  161.5401 C.ar    1  UNL1        0.1384
     15 N         138.8666  143.7622  161.0632 N.ar    1  UNL1       -0.2434
     16 O         137.4653  140.1118  161.7422 O.3     1  UNL1       -0.4668
     17 C         137.8377  138.6850  161.4674 C.3     1  UNL1        0.2527
     18 C         139.0970  138.3700  160.7157 C.3     1  UNL1        0.2526
     19 O         139.9838  139.4817  160.2388 O.3     1  UNL1       -0.4683
     20 C         143.4546  142.1318  165.7841 C.3     1  UNL1        0.1056
     21 O         143.3096  143.6842  170.8327 O.2     1  UNL1       -0.2653
     22 C         142.2262  142.7458  170.3903 C.ar    1  UNL1        0.2803
     23 C         141.1775  142.2983  171.3648 C.ar    1  UNL1        0.1594
     24 N         140.0941  141.3599  170.9224 N.ar    1  UNL1       -0.2374
     25 C         140.0595  140.8690  169.5054 C.ar    1  UNL1        0.0972
     26 C         138.9761  139.9307  169.0630 C.ar    1  UNL1        0.0229
     27 C         138.9415  139.4398  167.6460 C.ar    1  UNL1        0.0310
     28 C         139.9903  139.8874  166.6714 C.ar    1  UNL1        0.1399
     29 F         139.9557  139.3965  165.2544 F       1  UNL1       -0.2044
     30 C         141.0737  140.8258  167.1138 C.ar    1  UNL1        0.0497
     31 C         141.1082  141.3166  168.5309 C.ar    1  UNL1        0.0806
     32 N         142.1916  142.2550  168.9733 N.ar    1  UNL1       -0.2902
     33 C         142.9896  142.4257  167.7146 C.3     1  UNL1        0.1415
     34 C         142.3441  141.6005  166.6411 C.3     1  UNL1        0.1458
     35 O         141.9308  140.8864  165.3884 O.3     1  UNL1       -0.3793
     36 H         142.5490  141.1040  164.6732 H       1  UNL1        0.2108
@<TRIPOS>BOND
     1    21    22    2
     2    22    23   ar
     3    23    24   ar
     4    24    25   ar
     5    25    26   ar
     6    26    27   ar
     7    27    28   ar
     8    28    29    1
     9    28    30   ar
    10    30    31   ar
    11    31    32   ar
    12    32    33    1
    13    33    34    1
    14    34    35    1
    15    34    20    1
    16    20     1    1
    17     1     2    1
    18     2     3    1
    19     3     4    1
    20     4     7    1
    21     7     9    1
    22     9    10    1
    23    10    11   ar
    24    11    12   ar
    25    12    13   ar
    26    13    14   ar
    27    14    15   ar
    28    13    16    1
    29    16    17    1
    30    17    18    1
    31    18    19    1
    32     4     5    1
    33     5     6    1
    34    32    22   ar
    35     6     1    1
    36    31    25   ar
    37    15    10   ar
    38    34    30    1
    39    19    12    1
    40    35    36    1
    41     7     8    1
@<TRIPOS>MOLECULE
*****
 36 41 0 0 0
SMALL
GASTEIGER

@<TRIPOS>ATOM
      1 N         139.1534  139.2757  162.6095 N.3     1  UNL1       -0.2703
      2 C         140.0067  139.0975  161.3888 C.3     1  UNL1        0.0736
      3 C         139.7664  139.9459  160.1754 C.3     1  UNL1        0.0331
      4 C         138.6727  140.9725  160.1826 C.3     1  UNL1        0.0570
      5 C         137.8194  141.1507  161.4033 C.3     1  UNL1        0.0331
      6 C         138.0597  140.3024  162.6167 C.3     1  UNL1        0.0736
      7 N         138.4324  141.8209  158.9691 N.3     1  UNL1       -0.2934
      8 H         137.4265  141.9812  158.9164 H       1  UNL1        0.1236
      9 C         139.0915  143.1631  158.8498 C.3     1  UNL1        0.1152
     10 C         139.8613  143.7261  160.0076 C.ar    1  UNL1        0.0782
     11 C         141.3285  143.4441  160.1409 C.ar    1  UNL1        0.0562
     12 C         142.0983  144.0071  161.2987 C.ar    1  UNL1        0.1752
     13 C         141.4009  144.8521  162.3231 C.ar    1  UNL1        0.1914
     14 C         139.9337  145.1342  162.1898 C.ar    1  UNL1        0.1384
     15 N         139.1639  144.5712  161.0320 N.ar    1  UNL1       -0.2434
     16 O         142.1707  145.4152  163.4809 O.3     1  UNL1       -0.4668
     17 C         143.6379  145.1331  163.6142 C.3     1  UNL1        0.2527
     18 C         144.3353  144.2880  162.5898 C.3     1  UNL1        0.2526
     19 O         143.5655  143.7250  161.4320 O.3     1  UNL1       -0.4683
     20 C         139.3937  138.4273  163.8229 C.3     1  UNL1        0.1056
     21 O         143.6929  141.4381  164.4321 O.2     1  UNL1       -0.2653
     22 C         142.7914  141.3107  165.6242 C.ar    1  UNL1        0.2803
     23 C         143.1326  142.0188  166.9017 C.ar    1  UNL1        0.1594
     24 N         142.2311  141.8914  168.0938 N.ar    1  UNL1       -0.2374
     25 C         140.9884  141.0558  168.0084 C.ar    1  UNL1        0.0972
     26 C         140.0869  140.9283  169.2005 C.ar    1  UNL1        0.0229
     27 C         138.8442  140.0927  169.1151 C.ar    1  UNL1        0.0310
     28 C         138.5030  139.3844  167.8376 C.ar    1  UNL1        0.1399
     29 F         137.2603  138.5488  167.7522 F       1  UNL1       -0.2044
     30 C         139.4045  139.5119  166.6455 C.ar    1  UNL1        0.0497
     31 C         140.6472  140.3476  166.7309 C.ar    1  UNL1        0.0806
     32 N         141.5487  140.4750  165.5388 N.ar    1  UNL1       -0.2902
     33 C         140.8416  139.6296  164.5212 C.3     1  UNL1        0.1415
     34 C         139.6036  139.0735  165.1602 C.3     1  UNL1        0.1458
     35 O         138.3217  138.3824  165.5196 O.3     1  UNL1       -0.3793
     36 H         137.9989  137.8816  164.7542 H       1  UNL1        0.2108
@<TRIPOS>BOND
     1    21    22    2
     2    22    23   ar
     3    23    24   ar
     4    24    25   ar
     5    25    26   ar
     6    26    27   ar
     7    27    28   ar
     8    28    29    1
     9    28    30   ar
    10    30    31   ar
    11    31    32   ar
    12    32    33    1
    13    33    34    1
    14    34    35    1
    15    34    20    1
    16    20     1    1
    17     1     2    1
    18     2     3    1
    19     3     4    1
    20     4     7    1
    21     7     9    1
    22     9    10    1
    23    10    11   ar
    24    11    12   ar
    25    12    13   ar
    26    13    14   ar
    27    14    15   ar
    28    13    16    1
    29    16    17    1
    30    17    18    1
    31    18    19    1
    32     4     5    1
    33     5     6    1
    34    32    22   ar
    35     6     1    1
    36    31    25   ar
    37    15    10   ar
    38    34    30    1
    39    19    12    1
    40    35    36    1
    41     7     8    1
@<TRIPOS>MOLECULE
*****
 36 41 0 0 0
SMALL
GASTEIGER

@<TRIPOS>ATOM
      1 N         143.8489  140.1030  159.7653 N.3     1  UNL1       -0.2703
      2 C         143.4296  140.0177  158.3276 C.3     1  UNL1        0.0736
      3 C         143.2927  141.2684  157.5109 C.3     1  UNL1        0.0331
      4 C         143.5750  142.6043  158.1318 C.3     1  UNL1        0.0570
      5 C         143.9943  142.6896  159.5695 C.3     1  UNL1        0.0331
      6 C         144.1312  141.4390  160.3862 C.3     1  UNL1        0.0736
      7 N         143.4381  143.8550  157.3150 N.3     1  UNL1       -0.2934
      8 H         143.4440  143.5694  156.3358 H       1  UNL1        0.1236
      9 C         142.2443  144.7443  157.4994 C.3     1  UNL1        0.1152
     10 C         141.1746  144.3696  158.4819 C.ar    1  UNL1        0.0782
     11 C         141.1512  145.0011  159.8423 C.ar    1  UNL1        0.0562
     12 C         140.0815  144.6263  160.8248 C.ar    1  UNL1        0.1752
     13 C         139.0353  143.6201  160.4470 C.ar    1  UNL1        0.1914
     14 C         139.0587  142.9886  159.0866 C.ar    1  UNL1        0.1384
     15 N         140.1283  143.3633  158.1041 N.ar    1  UNL1       -0.2434
     16 O         137.9655  143.2453  161.4296 O.3     1  UNL1       -0.4668
     17 C         137.9422  143.8769  162.7899 C.3     1  UNL1        0.2527
     18 C         138.9885  144.8832  163.1678 C.3     1  UNL1        0.2526
     19 O         140.0581  145.2579  162.1852 O.3     1  UNL1       -0.4683
     20 C         143.9858  138.8524  160.5820 C.3     1  UNL1        0.1056
     21 O         138.8250  137.8294  161.0705 O.2     1  UNL1       -0.2653
     22 C         139.5888  138.0383  162.3445 C.ar    1  UNL1        0.2803
     23 C         138.8827  137.9518  163.6650 C.ar    1  UNL1        0.1594
     24 N         139.6465  138.1607  164.9390 N.ar    1  UNL1       -0.2374
     25 C         141.1164  138.4560  164.8924 C.ar    1  UNL1        0.0972
     26 C         141.8802  138.6649  166.1663 C.ar    1  UNL1        0.0229
     27 C         143.3500  138.9602  166.1197 C.ar    1  UNL1        0.0310
     28 C         144.0562  139.0466  164.7991 C.ar    1  UNL1        0.1399
     29 F         145.5261  139.3419  164.7525 F       1  UNL1       -0.2044
     30 C         143.2924  138.8377  163.5252 C.ar    1  UNL1        0.0497
     31 C         141.8224  138.5424  163.5718 C.ar    1  UNL1        0.0806
     32 N         141.0586  138.3336  162.2979 N.ar    1  UNL1       -0.2902
     33 C         142.1287  138.5057  161.2608 C.3     1  UNL1        0.1415
     34 C         143.4184  138.7968  161.9695 C.3     1  UNL1        0.1458
     35 O         144.8267  139.0995  162.3880 O.3     1  UNL1       -0.3793
     36 H         145.3878  139.1794  161.6008 H       1  UNL1        0.2108
@<TRIPOS>BOND
     1    21    22    2
     2    22    23   ar
     3    23    24   ar
     4    24    25   ar
     5    25    26   ar
     6    26    27   ar
     7    27    28   ar
     8    28    29    1
     9    28    30   ar
    10    30    31   ar
    11    31    32   ar
    12    32    33    1
    13    33    34    1
    14    34    35    1
    15    34    20    1
    16    20     1    1
    17     1     2    1
    18     2     3    1
    19     3     4    1
    20     4     7    1
    21     7     9    1
    22     9    10    1
    23    10    11   ar
    24    11    12   ar
    25    12    13   ar
    26    13    14   ar
    27    14    15   ar
    28    13    16    1
    29    16    17    1
    30    17    18    1
    31    18    19    1
    32     4     5    1
    33     5     6    1
    34    32    22   ar
    35     6     1    1
    36    31    25   ar
    37    15    10   ar
    38    34    30    1
    39    19    12    1
    40    35    36    1
    41     7     8    1
@<TRIPOS>MOLECULE
*****
 36 41 0 0 0
SMALL
GASTEIGER

@<TRIPOS>ATOM
      1 N         137.7327  140.9543  161.7581 N.3     1  UNL1       -0.2703
      2 C         137.5466  140.7872  163.2371 C.3     1  UNL1        0.0736
      3 C         137.7114  141.9648  164.1515 C.3     1  UNL1        0.0331
      4 C         138.0622  143.3094  163.5869 C.3     1  UNL1        0.0570
      5 C         138.2483  143.4765  162.1079 C.3     1  UNL1        0.0331
      6 C         138.0835  142.2990  161.1935 C.3     1  UNL1        0.0736
      7 N         138.2270  144.4871  164.5013 N.3     1  UNL1       -0.2934
      8 H         137.5009  144.4106  165.2137 H       1  UNL1        0.1236
      9 C         139.5234  144.6987  165.2255 C.3     1  UNL1        0.1152
     10 C         140.8175  144.3051  164.5771 C.ar    1  UNL1        0.0782
     11 C         141.5596  143.0938  165.0585 C.ar    1  UNL1        0.0562
     12 C         142.8537  142.7002  164.4101 C.ar    1  UNL1        0.1752
     13 C         143.4057  143.5180  163.2804 C.ar    1  UNL1        0.1914
     14 C         142.6636  144.7294  162.7989 C.ar    1  UNL1        0.1384
     15 N         141.3695  145.1230  163.4473 N.ar    1  UNL1       -0.2434
     16 O         144.6999  143.1244  162.6319 O.3     1  UNL1       -0.4668
     17 C         145.4419  141.9129  163.1134 C.3     1  UNL1        0.2527
     18 C         144.8899  141.0951  164.2432 C.3     1  UNL1        0.2526
     19 O         143.5958  141.4887  164.8916 O.3     1  UNL1       -0.4683
     20 C         137.5679  139.7767  160.8437 C.3     1  UNL1        0.1056
     21 O         142.0806  137.6851  162.6270 O.2     1  UNL1       -0.2653
     22 C         141.9842  137.9037  161.1462 C.ar    1  UNL1        0.2803
     23 C         143.1338  137.5329  160.2569 C.ar    1  UNL1        0.1594
     24 N         143.0374  137.7515  158.7760 N.ar    1  UNL1       -0.2374
     25 C         141.7914  138.3410  158.1845 C.ar    1  UNL1        0.0972
     26 C         141.6949  138.5597  156.7036 C.ar    1  UNL1        0.0229
     27 C         140.4489  139.1492  156.1121 C.ar    1  UNL1        0.0310
     28 C         139.2993  139.5200  157.0014 C.ar    1  UNL1        0.1399
     29 F         138.0533  140.1095  156.4099 F       1  UNL1       -0.2044
     30 C         139.3957  139.3014  158.4823 C.ar    1  UNL1        0.0497
     31 C         140.6418  138.7118  159.0738 C.ar    1  UNL1        0.0806
     32 N         140.7382  138.4932  160.5546 N.ar    1  UNL1       -0.2902
     33 C         139.4053  138.9901  161.0307 C.3     1  UNL1        0.1415
     34 C         138.6302  139.4567  159.8342 C.3     1  UNL1        0.1458
     35 O         137.6331  139.9902  158.8488 O.3     1  UNL1       -0.3793
     36 H         136.8308  140.2672  159.3184 H       1  UNL1        0.2108
@<TRIPOS>BOND
     1    21    22    2
     2    22    23   ar
     3    23    24   ar
     4    24    25   ar
     5    25    26   ar
     6    26    27   ar
     7    27    28   ar
     8    28    29    1
     9    28    30   ar
    10    30    31   ar
    11    31    32   ar
    12    32    33    1
    13    33    34    1
    14    34    35    1
    15    34    20    1
    16    20     1    1
    17     1     2    1
    18     2     3    1
    19     3     4    1
    20     4     7    1
    21     7     9    1
    22     9    10    1
    23    10    11   ar
    24    11    12   ar
    25    12    13   ar
    26    13    14   ar
    27    14    15   ar
    28    13    16    1
    29    16    17    1
    30    17    18    1
    31    18    19    1
    32     4     5    1
    33     5     6    1
    34    32    22   ar
    35     6     1    1
    36    31    25   ar
    37    15    10   ar
    38    34    30    1
    39    19    12    1
    40    35    36    1
    41     7     8    1
@<TRIPOS>MOLECULE
*****
 36 41 0 0 0
SMALL
GASTEIGER

@<TRIPOS>ATOM
      1 N         138.6645  138.9351  163.9860 N.3     1  UNL1       -0.2703
      2 C         138.8084  137.9191  162.8919 C.3     1  UNL1        0.0736
      3 C         138.3375  138.2394  161.5043 C.3     1  UNL1        0.0331
      4 C         137.7226  139.5758  161.2107 C.3     1  UNL1        0.0570
      5 C         137.5787  140.5918  162.3048 C.3     1  UNL1        0.0331
      6 C         138.0497  140.2714  163.6924 C.3     1  UNL1        0.0736
      7 N         137.2517  139.8961  159.8230 N.3     1  UNL1       -0.2934
      8 H         136.3649  140.3907  159.9198 H       1  UNL1        0.1236
      9 C         138.1106  140.7214  158.9113 C.3     1  UNL1        0.1152
     10 C         139.2096  141.5690  159.4800 C.ar    1  UNL1        0.0782
     11 C         140.5313  140.9501  159.8264 C.ar    1  UNL1        0.0562
     12 C         141.6303  141.7977  160.3952 C.ar    1  UNL1        0.1752
     13 C         141.4077  143.2643  160.6176 C.ar    1  UNL1        0.1914
     14 C         140.0860  143.8833  160.2713 C.ar    1  UNL1        0.1384
     15 N         138.9870  143.0356  159.7025 N.ar    1  UNL1       -0.2434
     16 O         142.5069  144.1120  161.1865 O.3     1  UNL1       -0.4668
     17 C         143.8285  143.4930  161.5328 C.3     1  UNL1        0.2527
     18 C         144.0512  142.0264  161.3104 C.3     1  UNL1        0.2526
     19 O         142.9521  141.1787  160.7416 O.3     1  UNL1       -0.4683
     20 C         139.1355  138.6147  165.3736 C.3     1  UNL1        0.1056
     21 O         137.9493  139.8959  170.3607 O.2     1  UNL1       -0.2653
     22 C         139.1914  140.5128  169.7892 C.ar    1  UNL1        0.2803
     23 C         140.0223  141.4391  170.6266 C.ar    1  UNL1        0.1594
     24 N         141.2644  142.0560  170.0551 N.ar    1  UNL1       -0.2374
     25 C         141.6756  141.7466  168.6461 C.ar    1  UNL1        0.0972
     26 C         142.9177  142.3635  168.0746 C.ar    1  UNL1        0.0229
     27 C         143.3288  142.0540  166.6657 C.ar    1  UNL1        0.0310
     28 C         142.4978  141.1276  165.8282 C.ar    1  UNL1        0.1399
     29 F         142.9090  140.8181  164.4192 F       1  UNL1       -0.2044
     30 C         141.2557  140.5107  166.3997 C.ar    1  UNL1        0.0497
     31 C         140.8446  140.8202  167.8087 C.ar    1  UNL1        0.0806
     32 N         139.6025  140.2033  168.3802 N.ar    1  UNL1       -0.2902
     33 C         139.1071  139.3771  167.2304 C.3     1  UNL1        0.1415
     34 C         140.0617  139.5546  166.0869 C.3     1  UNL1        0.1458
     35 O         140.8225  139.5356  164.7943 O.3     1  UNL1       -0.3793
     36 H         140.3700  138.9565  164.1613 H       1  UNL1        0.2108
@<TRIPOS>BOND
     1    21    22    2
     2    22    23   ar
     3    23    24   ar
     4    24    25   ar
     5    25    26   ar
     6    26    27   ar
     7    27    28   ar
     8    28    29    1
     9    28    30   ar
    10    30    31   ar
    11    31    32   ar
    12    32    33    1
    13    33    34    1
    14    34    35    1
    15    34    20    1
    16    20     1    1
    17     1     2    1
    18     2     3    1
    19     3     4    1
    20     4     7    1
    21     7     9    1
    22     9    10    1
    23    10    11   ar
    24    11    12   ar
    25    12    13   ar
    26    13    14   ar
    27    14    15   ar
    28    13    16    1
    29    16    17    1
    30    17    18    1
    31    18    19    1
    32     4     5    1
    33     5     6    1
    34    32    22   ar
    35     6     1    1
    36    31    25   ar
    37    15    10   ar
    38    34    30    1
    39    19    12    1
    40    35    36    1
    41     7     8    1
@<TRIPOS>MOLECULE
*****
 36 41 0 0 0
SMALL
GASTEIGER

@<TRIPOS>ATOM
      1 N         138.3390  141.7116  164.7094 N.3     1  UNL1       -0.2703
      2 C         138.2728  140.2516  165.0469 C.3     1  UNL1        0.0736
      3 C         139.1602  139.6882  166.1170 C.3     1  UNL1        0.0331
      4 C         140.1139  140.5849  166.8495 C.3     1  UNL1        0.0570
      5 C         140.1801  142.0449  166.5119 C.3     1  UNL1        0.0331
      6 C         139.2926  142.6083  165.4419 C.3     1  UNL1        0.0736
      7 N         141.0014  140.0215  167.9196 N.3     1  UNL1       -0.2934
      8 H         140.5052  139.2286  168.3263 H       1  UNL1        0.1236
      9 C         142.3792  139.5393  167.5744 C.3     1  UNL1        0.1152
     10 C         142.9042  139.7055  166.1792 C.ar    1  UNL1        0.0782
     11 C         142.6362  138.6513  165.1464 C.ar    1  UNL1        0.0562
     12 C         143.1612  138.8174  163.7512 C.ar    1  UNL1        0.1752
     13 C         143.9544  140.0378  163.3887 C.ar    1  UNL1        0.1914
     14 C         144.2225  141.0921  164.4215 C.ar    1  UNL1        0.1384
     15 N         143.6974  140.9259  165.8167 N.ar    1  UNL1       -0.2434
     16 O         144.4795  140.2040  161.9934 O.3     1  UNL1       -0.4668
     17 C         144.2114  139.1497  160.9607 C.3     1  UNL1        0.2527
     18 C         143.4182  137.9293  161.3232 C.3     1  UNL1        0.2526
     19 O         142.8931  137.7631  162.7184 O.3     1  UNL1       -0.4683
     20 C         137.4515  142.2749  163.6393 C.3     1  UNL1        0.1056
     21 O         140.2871  146.3787  161.8964 O.2     1  UNL1       -0.2653
     22 C         140.0017  145.2926  160.9020 C.ar    1  UNL1        0.2803
     23 C         140.5147  145.4082  159.4972 C.ar    1  UNL1        0.1594
     24 N         140.2293  144.3221  158.5028 N.ar    1  UNL1       -0.2374
     25 C         139.4310  143.1204  158.9131 C.ar    1  UNL1        0.0972
     26 C         139.1456  142.0343  157.9187 C.ar    1  UNL1        0.0229
     27 C         138.3472  140.8325  158.3290 C.ar    1  UNL1        0.0310
     28 C         137.8342  140.7169  159.7338 C.ar    1  UNL1        0.1399
     29 F         137.0358  139.5152  160.1441 F       1  UNL1       -0.2044
     30 C         138.1195  141.8030  160.7283 C.ar    1  UNL1        0.0497
     31 C         138.9180  143.0048  160.3179 C.ar    1  UNL1        0.0806
     32 N         139.2033  144.0909  161.3123 N.ar    1  UNL1       -0.2902
     33 C         138.5220  143.5727  162.5442 C.3     1  UNL1        0.1415
     34 C         137.8963  142.2518  162.2070 C.3     1  UNL1        0.1458
     35 O         137.1776  140.9357  162.1692 O.3     1  UNL1       -0.3793
     36 H         136.7961  140.7505  163.0415 H       1  UNL1        0.2108
@<TRIPOS>BOND
     1    21    22    2
     2    22    23   ar
     3    23    24   ar
     4    24    25   ar
     5    25    26   ar
     6    26    27   ar
     7    27    28   ar
     8    28    29    1
     9    28    30   ar
    10    30    31   ar
    11    31    32   ar
    12    32    33    1
    13    33    34    1
    14    34    35    1
    15    34    20    1
    16    20     1    1
    17     1     2    1
    18     2     3    1
    19     3     4    1
    20     4     7    1
    21     7     9    1
    22     9    10    1
    23    10    11   ar
    24    11    12   ar
    25    12    13   ar
    26    13    14   ar
    27    14    15   ar
    28    13    16    1
    29    16    17    1
    30    17    18    1
    31    18    19    1
    32     4     5    1
    33     5     6    1
    34    32    22   ar
    35     6     1    1
    36    31    25   ar
    37    15    10   ar
    38    34    30    1
    39    19    12    1
    40    35    36    1
    41     7     8    1
@<TRIPOS>MOLECULE
*****
 36 41 0 0 0
SMALL
GASTEIGER

@<TRIPOS>ATOM
      1 N         143.7771  139.9345  163.6530 N.3     1  UNL1       -0.2703
      2 C         143.8035  139.2463  162.3205 C.3     1  UNL1        0.0736
      3 C         144.0379  140.0414  161.0703 C.3     1  UNL1        0.0331
      4 C         144.2459  141.5246  161.1527 C.3     1  UNL1        0.0570
      5 C         144.2195  142.2128  162.4852 C.3     1  UNL1        0.0331
      6 C         143.9850  141.4178  163.7354 C.3     1  UNL1        0.0736
      7 N         144.4803  142.3197  159.9024 N.3     1  UNL1       -0.2934
      8 H         144.9438  141.6974  159.2403 H       1  UNL1        0.1236
      9 C         143.3211  142.9370  159.1778 C.3     1  UNL1        0.1152
     10 C         142.1443  143.4557  159.9498 C.ar    1  UNL1        0.0782
     11 C         141.1732  142.4962  160.5713 C.ar    1  UNL1        0.0562
     12 C         139.9963  143.0149  161.3433 C.ar    1  UNL1        0.1752
     13 C         139.7906  144.4930  161.4939 C.ar    1  UNL1        0.1914
     14 C         140.7617  145.4525  160.8724 C.ar    1  UNL1        0.1384
     15 N         141.9385  144.9339  160.1004 N.ar    1  UNL1       -0.2434
     16 O         138.6137  145.0117  162.2660 O.3     1  UNL1       -0.4668
     17 C         137.6426  144.0522  162.8874 C.3     1  UNL1        0.2527
     18 C         137.8483  142.5740  162.7369 C.3     1  UNL1        0.2526
     19 O         139.0252  142.0553  161.9649 O.3     1  UNL1       -0.4683
     20 C         143.5427  139.1395  164.9032 C.3     1  UNL1        0.1056
     21 O         143.4629  140.6607  169.9627 O.2     1  UNL1       -0.2653
     22 C         142.1382  140.3238  169.3448 C.ar    1  UNL1        0.2803
     23 C         140.8827  140.4279  170.1588 C.ar    1  UNL1        0.1594
     24 N         139.5581  140.0911  169.5409 N.ar    1  UNL1       -0.2374
     25 C         139.4890  139.6501  168.1089 C.ar    1  UNL1        0.0972
     26 C         138.1643  139.3133  167.4909 C.ar    1  UNL1        0.0229
     27 C         138.0952  138.8723  166.0589 C.ar    1  UNL1        0.0310
     28 C         139.3508  138.7682  165.2447 C.ar    1  UNL1        0.1399
     29 F         139.2817  138.3273  163.8127 F       1  UNL1       -0.2044
     30 C         140.6754  139.1051  165.8627 C.ar    1  UNL1        0.0497
     31 C         140.7445  139.5460  167.2948 C.ar    1  UNL1        0.0806
     32 N         142.0691  139.8829  167.9127 N.ar    1  UNL1       -0.2902
     33 C         143.0146  139.6451  166.7727 C.3     1  UNL1        0.1415
     34 C         142.2099  139.1961  165.5891 C.3     1  UNL1        0.1458
     35 O         141.6839  138.7352  164.2621 O.3     1  UNL1       -0.3793
     36 H         142.4212  138.6307  163.6406 H       1  UNL1        0.2108
@<TRIPOS>BOND
     1    21    22    2
     2    22    23   ar
     3    23    24   ar
     4    24    25   ar
     5    25    26   ar
     6    26    27   ar
     7    27    28   ar
     8    28    29    1
     9    28    30   ar
    10    30    31   ar
    11    31    32   ar
    12    32    33    1
    13    33    34    1
    14    34    35    1
    15    34    20    1
    16    20     1    1
    17     1     2    1
    18     2     3    1
    19     3     4    1
    20     4     7    1
    21     7     9    1
    22     9    10    1
    23    10    11   ar
    24    11    12   ar
    25    12    13   ar
    26    13    14   ar
    27    14    15   ar
    28    13    16    1
    29    16    17    1
    30    17    18    1
    31    18    19    1
    32     4     5    1
    33     5     6    1
    34    32    22   ar
    35     6     1    1
    36    31    25   ar
    37    15    10   ar
    38    34    30    1
    39    19    12    1
    40    35    36    1
    41     7     8    1
