@<TRIPOS>MOLECULE
*****
 35 39 0 0 0
SMALL
GASTEIGER

@<TRIPOS>ATOM
      1 C         141.2486  142.0516  161.6990 C.3     1  UNL1        0.0546
      2 C         140.9832  143.5085  161.4607 C.3     1  UNL1        0.0176
      3 C         139.6396  143.8359  162.0416 C.3     1  UNL1        0.0266
      4 C         138.6451  144.9387  162.2534 C.3     1  UNL1        0.0691
      5 N         137.4655  144.3657  162.9815 N.3     1  UNL1       -0.2971
      6 C         137.7309  142.9087  163.2197 C.3     1  UNL1        0.0773
      7 C         139.0746  142.5813  162.6389 C.3     1  UNL1        0.0861
      8 C         140.0690  141.4785  162.4271 C.3     1  UNL1        0.0257
      9 H         136.6232  144.4763  162.4170 H       1  UNL1        0.1233
     10 C         138.5096  141.3267  163.2361 C.2     1  UNL1        0.2264
     11 O         137.6170  140.4421  162.4171 O.2     1  UNL1       -0.2748
     12 N         138.8372  140.9566  164.6524 N.am    1  UNL1       -0.2750
     13 C         138.2722  139.7020  165.2496 C.3     1  UNL1        0.1000
     14 C         138.5999  139.3320  166.6658 C.3     1  UNL1        0.0670
     15 C         139.4925  140.2166  167.4848 C.ar    1  UNL1        0.0583
     16 N         139.8201  139.8465  168.9011 N.ar    1  UNL1       -0.2484
     17 C         140.7127  140.7311  169.7201 C.ar    1  UNL1        0.1023
     18 C         141.2777  141.9858  169.1228 C.ar    1  UNL1        0.0902
     19 C         140.9500  142.3558  167.7066 C.ar    1  UNL1        0.0040
     20 C         140.0574  141.4712  166.8876 C.ar    1  UNL1        0.0113
     21 C         139.7298  141.8412  165.4713 C.3     1  UNL1        0.1213
     22 C         142.1703  142.8704  169.9418 C.3     1  UNL1        0.4200
     23 F         143.0629  143.7550  170.7608 F       1  UNL1       -0.1658
     24 F         143.2014  141.7822  169.9934 F       1  UNL1       -0.1658
     25 F         141.1392  143.9586  169.8901 F       1  UNL1       -0.1658
     26 N         142.4779  141.2996  161.2822 N.3     1  UNL1       -0.2975
     27 H         142.1612  140.4173  160.8801 H       1  UNL1        0.1232
     28 C         144.5775  141.9711  162.6573 C.3     1  UNL1        0.1591
     29 C         145.6291  141.6319  163.6717 C.3     1  UNL1        0.1729
     30 O         145.6327  140.2820  164.3256 O.3     1  UNL1       -0.3511
     31 C         144.5847  139.2711  163.9650 C.3     1  UNL1        0.1437
     32 C         143.5331  139.6103  162.9505 C.3     1  UNL1        0.0503
     33 C         143.5295  140.9604  162.2967 C.3     1  UNL1        0.0865
     34 C         144.1706  144.5338  162.7888 C.3     1  UNL1        0.1742
     35 O         144.5738  143.3211  162.0034 O.3     1  UNL1       -0.3496
@<TRIPOS>BOND
     1    34    35    1
     2    35    28    1
     3    28    29    1
     4    29    30    1
     5    30    31    1
     6    31    32    1
     7    32    33    1
     8    33    26    1
     9     1    26    1
    10     1     2    1
    11     3     2    1
    12     3     4    1
    13     4     5    1
    14     5     6    1
    15     6     7    1
    16     7    10    1
    17    10    11    2
    18    10    12   am
    19    12    13    1
    20    13    14    1
    21    14    15    1
    22    15    16   ar
    23    16    17   ar
    24    17    18   ar
    25    18    22    1
    26    22    23    1
    27    22    24    1
    28    22    25    1
    29    18    19   ar
    30    19    20   ar
    31    20    21    1
    32     7     8    1
    33    33    28    1
    34     8     1    1
    35     7     3    1
    36    21    12    1
    37    20    15   ar
    38    26    27    1
    39     5     9    1
@<TRIPOS>MOLECULE
*****
 35 39 0 0 0
SMALL
GASTEIGER

@<TRIPOS>ATOM
      1 C         138.4034  142.1470  162.5107 C.3     1  UNL1        0.0546
      2 C         137.9476  143.5288  162.1463 C.3     1  UNL1        0.0176
      3 C         139.1614  144.4031  162.0356 C.3     1  UNL1        0.0266
      4 C         139.6299  145.7975  161.7419 C.3     1  UNL1        0.0691
      5 N         141.1254  145.8178  161.8564 N.3     1  UNL1       -0.2971
      6 C         141.5812  144.4360  162.2208 C.3     1  UNL1        0.0773
      7 C         140.3674  143.5616  162.3315 C.3     1  UNL1        0.0861
      8 C         139.8989  142.1673  162.6252 C.3     1  UNL1        0.0257
      9 H         141.4082  146.4778  162.5808 H       1  UNL1        0.1233
     10 C         141.5733  142.7202  162.6275 C.2     1  UNL1        0.2264
     11 O         142.4506  142.2462  161.5068 O.2     1  UNL1       -0.2748
     12 N         141.9021  142.3526  164.0442 N.am    1  UNL1       -0.2750
     13 C         143.1080  141.5111  164.3401 C.3     1  UNL1        0.1000
     14 C         143.4367  141.1436  165.7567 C.3     1  UNL1        0.0670
     15 C         142.5594  141.6175  166.8774 C.ar    1  UNL1        0.0583
     16 N         142.8882  141.2499  168.2941 N.ar    1  UNL1       -0.2484
     17 C         142.0109  141.7238  169.4147 C.ar    1  UNL1        0.1023
     18 C         140.8050  142.5653  169.1187 C.ar    1  UNL1        0.0902
     19 C         140.4763  142.9329  167.7021 C.ar    1  UNL1        0.0040
     20 C         141.3535  142.4589  166.5814 C.ar    1  UNL1        0.0113
     21 C         141.0248  142.8265  165.1648 C.3     1  UNL1        0.1213
     22 C         139.9277  143.0392  170.2393 C.3     1  UNL1        0.4200
     23 F         139.0505  143.5132  171.3600 F       1  UNL1       -0.1658
     24 F         139.2849  141.6858  170.3085 F       1  UNL1       -0.1658
     25 F         140.5706  144.3927  170.1702 F       1  UNL1       -0.1658
     26 N         137.5190  140.9542  162.7234 N.3     1  UNL1       -0.2975
     27 H         136.6761  141.2917  163.1881 H       1  UNL1        0.1232
     28 C         138.4054  138.5143  162.8277 C.3     1  UNL1        0.1591
     29 C         138.9017  137.3455  163.6263 C.3     1  UNL1        0.1729
     30 O         139.0077  137.4478  165.1190 O.3     1  UNL1       -0.3511
     31 C         138.6175  138.7190  165.8132 C.3     1  UNL1        0.1437
     32 C         138.1213  139.8878  165.0147 C.3     1  UNL1        0.0503
     33 C         138.0152  139.7854  163.5219 C.3     1  UNL1        0.0865
     34 C         139.5380  138.4586  160.4901 C.3     1  UNL1        0.1742
     35 O         138.2994  138.4119  161.3350 O.3     1  UNL1       -0.3496
@<TRIPOS>BOND
     1    34    35    1
     2    35    28    1
     3    28    29    1
     4    29    30    1
     5    30    31    1
     6    31    32    1
     7    32    33    1
     8    33    26    1
     9     1    26    1
    10     1     2    1
    11     3     2    1
    12     3     4    1
    13     4     5    1
    14     5     6    1
    15     6     7    1
    16     7    10    1
    17    10    11    2
    18    10    12   am
    19    12    13    1
    20    13    14    1
    21    14    15    1
    22    15    16   ar
    23    16    17   ar
    24    17    18   ar
    25    18    22    1
    26    22    23    1
    27    22    24    1
    28    22    25    1
    29    18    19   ar
    30    19    20   ar
    31    20    21    1
    32     7     8    1
    33    33    28    1
    34     8     1    1
    35     7     3    1
    36    21    12    1
    37    20    15   ar
    38    26    27    1
    39     5     9    1
@<TRIPOS>MOLECULE
*****
 35 39 0 0 0
SMALL
GASTEIGER

@<TRIPOS>ATOM
      1 C         139.4178  139.4670  166.5464 C.3     1  UNL1        0.0546
      2 C         139.0051  139.9002  167.9218 C.3     1  UNL1        0.0176
      3 C         140.2490  140.1540  168.7207 C.3     1  UNL1        0.0266
      4 C         140.7628  140.5786  170.0644 C.3     1  UNL1        0.0691
      5 N         142.2619  140.5646  170.0132 N.3     1  UNL1       -0.2971
      6 C         142.6746  140.1313  168.6377 C.3     1  UNL1        0.0773
      7 C         141.4306  139.8776  167.8389 C.3     1  UNL1        0.0861
      8 C         140.9169  139.4530  166.4951 C.3     1  UNL1        0.0257
      9 H         142.6258  139.9103  170.7059 H       1  UNL1        0.1233
     10 C         142.6122  139.6012  166.9571 C.2     1  UNL1        0.2264
     11 O         143.5459  138.4742  167.2857 O.2     1  UNL1       -0.2748
     12 N         142.8599  140.4518  165.7466 N.am    1  UNL1       -0.2750
     13 C         144.0415  140.1754  164.8648 C.3     1  UNL1        0.1000
     14 C         144.2892  141.0259  163.6544 C.3     1  UNL1        0.0670
     15 C         143.3554  142.1529  163.3258 C.ar    1  UNL1        0.0583
     16 N         143.6032  143.0035  162.1153 N.ar    1  UNL1       -0.2484
     17 C         142.6694  144.1305  161.7867 C.ar    1  UNL1        0.1023
     18 C         141.4878  144.4068  162.6686 C.ar    1  UNL1        0.0902
     19 C         141.2401  143.5563  163.8790 C.ar    1  UNL1        0.0040
     20 C         142.1739  142.4293  164.2076 C.ar    1  UNL1        0.0113
     21 C         141.9262  141.5787  165.4180 C.3     1  UNL1        0.1213
     22 C         140.5541  145.5338  162.3400 C.3     1  UNL1        0.4200
     23 F         139.6203  146.6608  162.0113 F       1  UNL1       -0.1658
     24 F         139.9762  145.4580  163.7221 F       1  UNL1       -0.1658
     25 F         141.1320  145.6096  160.9578 F       1  UNL1       -0.1658
     26 N         138.4937  139.1103  165.4199 N.3     1  UNL1       -0.2975
     27 H         138.9075  138.3100  164.9417 H       1  UNL1        0.1232
     28 C         138.0450  139.7036  162.9306 C.3     1  UNL1        0.1591
     29 C         137.7224  140.7193  161.8750 C.3     1  UNL1        0.1729
     30 O         137.5257  142.1575  162.2532 O.3     1  UNL1       -0.3511
     31 C         137.6518  142.5800  163.6870 C.3     1  UNL1        0.1437
     32 C         137.9744  141.5642  164.7425 C.3     1  UNL1        0.0503
     33 C         138.1711  140.1260  164.3643 C.3     1  UNL1        0.0865
     34 C         139.6266  137.7254  162.3513 C.3     1  UNL1        0.1742
     35 O         138.2416  138.2655  162.5524 O.3     1  UNL1       -0.3496
@<TRIPOS>BOND
     1    34    35    1
     2    35    28    1
     3    28    29    1
     4    29    30    1
     5    30    31    1
     6    31    32    1
     7    32    33    1
     8    33    26    1
     9     1    26    1
    10     1     2    1
    11     3     2    1
    12     3     4    1
    13     4     5    1
    14     5     6    1
    15     6     7    1
    16     7    10    1
    17    10    11    2
    18    10    12   am
    19    12    13    1
    20    13    14    1
    21    14    15    1
    22    15    16   ar
    23    16    17   ar
    24    17    18   ar
    25    18    22    1
    26    22    23    1
    27    22    24    1
    28    22    25    1
    29    18    19   ar
    30    19    20   ar
    31    20    21    1
    32     7     8    1
    33    33    28    1
    34     8     1    1
    35     7     3    1
    36    21    12    1
    37    20    15   ar
    38    26    27    1
    39     5     9    1
@<TRIPOS>MOLECULE
*****
 35 39 0 0 0
SMALL
GASTEIGER

@<TRIPOS>ATOM
      1 C         142.8144  141.8182  162.1758 C.3     1  UNL1        0.0546
      2 C         143.9078  140.8927  161.7311 C.3     1  UNL1        0.0176
      3 C         143.3549  139.4985  161.7095 C.3     1  UNL1        0.0266
      4 C         143.6889  138.0649  161.4213 C.3     1  UNL1        0.0691
      5 N         142.4601  137.2427  161.6746 N.3     1  UNL1       -0.2971
      6 C         141.3666  138.1682  162.1192 C.3     1  UNL1        0.0773
      7 C         141.9196  139.5624  162.1408 C.3     1  UNL1        0.0861
      8 C         141.5856  140.9960  162.4290 C.3     1  UNL1        0.0257
      9 H         142.6484  136.5541  162.4031 H       1  UNL1        0.1233
     10 C         140.4844  139.6262  162.5722 C.2     1  UNL1        0.2264
     11 O         139.3921  139.6366  161.5442 O.2     1  UNL1       -0.2748
     12 N         140.1415  139.6797  164.0315 N.am    1  UNL1       -0.2750
     13 C         138.7063  139.7436  164.4628 C.3     1  UNL1        0.1000
     14 C         138.3634  139.7971  165.9221 C.3     1  UNL1        0.0670
     15 C         139.4557  139.7867  166.9501 C.ar    1  UNL1        0.0583
     16 N         139.1128  139.8402  168.4094 N.ar    1  UNL1       -0.2484
     17 C         140.2051  139.8298  169.4374 C.ar    1  UNL1        0.1023
     18 C         141.6404  139.7660  169.0060 C.ar    1  UNL1        0.0902
     19 C         141.9833  139.7125  167.5467 C.ar    1  UNL1        0.0040
     20 C         140.8909  139.7228  166.5187 C.ar    1  UNL1        0.0113
     21 C         141.2338  139.6694  165.0595 C.3     1  UNL1        0.1213
     22 C         142.7327  139.7556  170.0339 C.3     1  UNL1        0.4200
     23 F         143.8251  139.7452  171.0619 F       1  UNL1       -0.1658
     24 F         142.4548  138.3085  170.3146 F       1  UNL1       -0.1658
     25 F         143.0107  141.2026  169.7532 F       1  UNL1       -0.1658
     26 N         142.9294  143.3049  162.3386 N.3     1  UNL1       -0.2975
     27 H         143.0537  143.4832  163.3352 H       1  UNL1        0.1232
     28 C         140.8805  144.8104  162.8727 C.3     1  UNL1        0.1591
     29 C         139.7688  145.7040  162.4082 C.3     1  UNL1        0.1729
     30 O         139.5945  145.9858  160.9453 O.3     1  UNL1       -0.3511
     31 C         140.5319  145.3739  159.9467 C.3     1  UNL1        0.1437
     32 C         141.6435  144.4803  160.4112 C.3     1  UNL1        0.0503
     33 C         141.8178  144.1986  161.8742 C.3     1  UNL1        0.0865
     34 C         140.2885  143.4122  164.9809 C.3     1  UNL1        0.1742
     35 O         141.0548  144.5287  164.3356 O.3     1  UNL1       -0.3496
@<TRIPOS>BOND
     1    34    35    1
     2    35    28    1
     3    28    29    1
     4    29    30    1
     5    30    31    1
     6    31    32    1
     7    32    33    1
     8    33    26    1
     9     1    26    1
    10     1     2    1
    11     3     2    1
    12     3     4    1
    13     4     5    1
    14     5     6    1
    15     6     7    1
    16     7    10    1
    17    10    11    2
    18    10    12   am
    19    12    13    1
    20    13    14    1
    21    14    15    1
    22    15    16   ar
    23    16    17   ar
    24    17    18   ar
    25    18    22    1
    26    22    23    1
    27    22    24    1
    28    22    25    1
    29    18    19   ar
    30    19    20   ar
    31    20    21    1
    32     7     8    1
    33    33    28    1
    34     8     1    1
    35     7     3    1
    36    21    12    1
    37    20    15   ar
    38    26    27    1
    39     5     9    1
@<TRIPOS>MOLECULE
*****
 35 39 0 0 0
SMALL
GASTEIGER

@<TRIPOS>ATOM
      1 C         139.3841  139.7784  167.8636 C.3     1  UNL1        0.0546
      2 C         139.2222  140.5539  169.1373 C.3     1  UNL1        0.0176
      3 C         140.5905  140.8674  169.6661 C.3     1  UNL1        0.0266
      4 C         141.3361  141.5405  170.7801 C.3     1  UNL1        0.0691
      5 N         142.8043  141.3746  170.5218 N.3     1  UNL1       -0.2971
      6 C         142.9662  140.5991  169.2481 C.3     1  UNL1        0.0773
      7 C         141.5980  140.2856  168.7192 C.3     1  UNL1        0.0861
      8 C         140.8523  139.6126  167.6052 C.3     1  UNL1        0.0257
      9 H         143.2364  140.8667  171.2936 H       1  UNL1        0.1233
     10 C         142.6054  139.7038  167.7724 C.2     1  UNL1        0.2264
     11 O         143.3844  138.4830  168.1632 O.2     1  UNL1       -0.2748
     12 N         142.8338  140.3429  166.4346 N.am    1  UNL1       -0.2750
     13 C         143.8412  139.7611  165.4877 C.3     1  UNL1        0.1000
     14 C         144.0696  140.4001  164.1500 C.3     1  UNL1        0.0670
     15 C         143.2906  141.6209  163.7592 C.ar    1  UNL1        0.0583
     16 N         143.5190  142.2600  162.4215 N.ar    1  UNL1       -0.2484
     17 C         142.7400  143.4808  162.0307 C.ar    1  UNL1        0.1023
     18 C         141.7326  144.0626  162.9776 C.ar    1  UNL1        0.0902
     19 C         141.5042  143.4235  164.3153 C.ar    1  UNL1        0.0040
     20 C         142.2832  142.2027  164.7061 C.ar    1  UNL1        0.0113
     21 C         142.0548  141.5637  166.0438 C.3     1  UNL1        0.1213
     22 C         140.9535  145.2834  162.5868 C.3     1  UNL1        0.4200
     23 F         140.1745  146.5042  162.1960 F       1  UNL1       -0.1658
     24 F         141.6670  146.0762  163.6415 F       1  UNL1       -0.1658
     25 F         140.2401  144.4905  161.5321 F       1  UNL1       -0.1658
     26 N         138.2728  139.2597  166.9998 N.3     1  UNL1       -0.2975
     27 H         137.9994  138.3550  167.3834 H       1  UNL1        0.1232
     28 C         138.4237  140.2255  164.5926 C.3     1  UNL1        0.1591
     29 C         138.6479  140.0230  163.1234 C.3     1  UNL1        0.1729
     30 O         138.9453  138.6522  162.5920 O.3     1  UNL1       -0.3511
     31 C         139.0185  137.4838  163.5299 C.3     1  UNL1        0.1437
     32 C         138.7944  137.6863  164.9992 C.3     1  UNL1        0.0503
     33 C         138.4969  139.0572  165.5305 C.3     1  UNL1        0.0865
     34 C         137.8342  142.7212  164.1757 C.3     1  UNL1        0.1742
     35 O         138.1263  141.5963  165.1240 O.3     1  UNL1       -0.3496
@<TRIPOS>BOND
     1    34    35    1
     2    35    28    1
     3    28    29    1
     4    29    30    1
     5    30    31    1
     6    31    32    1
     7    32    33    1
     8    33    26    1
     9     1    26    1
    10     1     2    1
    11     3     2    1
    12     3     4    1
    13     4     5    1
    14     5     6    1
    15     6     7    1
    16     7    10    1
    17    10    11    2
    18    10    12   am
    19    12    13    1
    20    13    14    1
    21    14    15    1
    22    15    16   ar
    23    16    17   ar
    24    17    18   ar
    25    18    22    1
    26    22    23    1
    27    22    24    1
    28    22    25    1
    29    18    19   ar
    30    19    20   ar
    31    20    21    1
    32     7     8    1
    33    33    28    1
    34     8     1    1
    35     7     3    1
    36    21    12    1
    37    20    15   ar
    38    26    27    1
    39     5     9    1
@<TRIPOS>MOLECULE
*****
 35 39 0 0 0
SMALL
GASTEIGER

@<TRIPOS>ATOM
      1 C         140.5057  141.4939  161.1265 C.3     1  UNL1        0.0546
      2 C         139.0470  141.1917  160.9505 C.3     1  UNL1        0.0176
      3 C         138.7931  139.8099  161.4760 C.3     1  UNL1        0.0266
      4 C         137.7348  138.7692  161.6920 C.3     1  UNL1        0.0691
      5 N         138.3824  137.5741  162.3264 N.3     1  UNL1       -0.2971
      6 C         139.8410  137.8763  162.5025 C.3     1  UNL1        0.0773
      7 C         140.0949  139.2580  161.9769 C.3     1  UNL1        0.0861
      8 C         141.1533  140.2988  161.7609 C.3     1  UNL1        0.0257
      9 H         138.2680  136.7583  161.7248 H       1  UNL1        0.1233
     10 C         141.3967  138.7062  162.4778 C.2     1  UNL1        0.2264
     11 O         142.3211  137.9933  161.5359 O.2     1  UNL1       -0.2748
     12 N         141.7740  138.8673  163.9206 N.am    1  UNL1       -0.2750
     13 C         143.0758  138.3155  164.4215 C.3     1  UNL1        0.1000
     14 C         143.4531  138.4766  165.8643 C.3     1  UNL1        0.0670
     15 C         142.5286  139.1895  166.8062 C.ar    1  UNL1        0.0583
     16 N         142.9060  139.3505  168.2490 N.ar    1  UNL1       -0.2484
     17 C         141.9815  140.0634  169.1909 C.ar    1  UNL1        0.1023
     18 C         140.6797  140.6153  168.6900 C.ar    1  UNL1        0.0902
     19 C         140.3024  140.4542  167.2472 C.ar    1  UNL1        0.0040
     20 C         141.2269  139.7413  166.3053 C.ar    1  UNL1        0.0113
     21 C         140.8496  139.5802  164.8625 C.3     1  UNL1        0.1213
     22 C         139.7553  141.3282  169.6319 C.3     1  UNL1        0.4200
     23 F         138.8308  142.0411  170.5738 F       1  UNL1       -0.1658
     24 F         139.4182  140.0226  170.2892 F       1  UNL1       -0.1658
     25 F         140.0924  142.6337  168.9746 F       1  UNL1       -0.1658
     26 N         141.1956  142.7675  160.7367 N.3     1  UNL1       -0.2975
     27 H         141.8773  142.5249  160.0177 H       1  UNL1        0.1232
     28 C         141.1728  144.5379  162.6380 C.3     1  UNL1        0.1591
     29 C         141.9024  145.3427  163.6725 C.3     1  UNL1        0.1729
     30 O         143.3842  145.1817  163.8402 O.3     1  UNL1       -0.3511
     31 C         144.1366  144.2160  162.9734 C.3     1  UNL1        0.1437
     32 C         143.4071  143.4112  161.9389 C.3     1  UNL1        0.0503
     33 C         141.9252  143.5722  161.7712 C.3     1  UNL1        0.0865
     34 C         138.7546  144.1421  163.5015 C.3     1  UNL1        0.1742
     35 O         139.6910  144.6989  162.4703 O.3     1  UNL1       -0.3496
@<TRIPOS>BOND
     1    34    35    1
     2    35    28    1
     3    28    29    1
     4    29    30    1
     5    30    31    1
     6    31    32    1
     7    32    33    1
     8    33    26    1
     9     1    26    1
    10     1     2    1
    11     3     2    1
    12     3     4    1
    13     4     5    1
    14     5     6    1
    15     6     7    1
    16     7    10    1
    17    10    11    2
    18    10    12   am
    19    12    13    1
    20    13    14    1
    21    14    15    1
    22    15    16   ar
    23    16    17   ar
    24    17    18   ar
    25    18    22    1
    26    22    23    1
    27    22    24    1
    28    22    25    1
    29    18    19   ar
    30    19    20   ar
    31    20    21    1
    32     7     8    1
    33    33    28    1
    34     8     1    1
    35     7     3    1
    36    21    12    1
    37    20    15   ar
    38    26    27    1
    39     5     9    1
@<TRIPOS>MOLECULE
*****
 35 39 0 0 0
SMALL
GASTEIGER

@<TRIPOS>ATOM
      1 C         141.5366  142.1693  162.3671 C.3     1  UNL1        0.0546
      2 C         141.2463  143.5861  161.9691 C.3     1  UNL1        0.0176
      3 C         139.8135  143.8774  162.3042 C.3     1  UNL1        0.0266
      4 C         138.7486  144.9331  162.2653 C.3     1  UNL1        0.0691
      5 N         137.4952  144.3488  162.8464 N.3     1  UNL1       -0.2971
      6 C         137.7855  142.9320  163.2444 C.3     1  UNL1        0.0773
      7 C         139.2183  142.6406  162.9093 C.3     1  UNL1        0.0861
      8 C         140.2832  141.5850  162.9481 C.3     1  UNL1        0.0257
      9 H         136.7498  144.3670  162.1504 H       1  UNL1        0.1233
     10 C         138.6231  141.4039  163.5144 C.2     1  UNL1        0.2264
     11 O         137.6912  140.5483  162.7083 O.2     1  UNL1       -0.2748
     12 N         138.9597  141.0227  164.9256 N.am    1  UNL1       -0.2750
     13 C         138.3645  139.7859  165.5307 C.3     1  UNL1        0.1000
     14 C         138.7012  139.4047  166.9418 C.3     1  UNL1        0.0670
     15 C         139.6330  140.2603  167.7478 C.ar    1  UNL1        0.0583
     16 N         139.9696  139.8791  169.1590 N.ar    1  UNL1       -0.2484
     17 C         140.9015  140.7346  169.9651 C.ar    1  UNL1        0.1023
     18 C         141.4967  141.9714  169.3599 C.ar    1  UNL1        0.0902
     19 C         141.1600  142.3526  167.9488 C.ar    1  UNL1        0.0040
     20 C         140.2282  141.4970  167.1428 C.ar    1  UNL1        0.0113
     21 C         139.8915  141.8782  165.7316 C.3     1  UNL1        0.1213
     22 C         142.4285  142.8270  170.1660 C.3     1  UNL1        0.4200
     23 F         143.3603  143.6825  170.9720 F       1  UNL1       -0.1658
     24 F         143.3974  141.6855  170.2575 F       1  UNL1       -0.1658
     25 F         141.4596  143.9684  170.0745 F       1  UNL1       -0.1658
     26 N         142.8497  141.4611  162.2113 N.3     1  UNL1       -0.2975
     27 H         143.4783  142.1078  161.7349 H       1  UNL1        0.1232
     28 C         143.7384  139.0286  162.0035 C.3     1  UNL1        0.1591
     29 C         143.8059  137.7296  161.2565 C.3     1  UNL1        0.1729
     30 O         143.0523  137.5641  159.9702 O.3     1  UNL1       -0.3511
     31 C         142.2311  138.6977  159.4308 C.3     1  UNL1        0.1437
     32 C         142.1636  139.9967  160.1779 C.3     1  UNL1        0.0503
     33 C         142.9172  140.1621  161.4643 C.3     1  UNL1        0.0865
     34 C         143.7772  139.0542  164.6012 C.3     1  UNL1        0.1742
     35 O         144.4920  139.1941  163.2898 O.3     1  UNL1       -0.3496
@<TRIPOS>BOND
     1    34    35    1
     2    35    28    1
     3    28    29    1
     4    29    30    1
     5    30    31    1
     6    31    32    1
     7    32    33    1
     8    33    26    1
     9     1    26    1
    10     1     2    1
    11     3     2    1
    12     3     4    1
    13     4     5    1
    14     5     6    1
    15     6     7    1
    16     7    10    1
    17    10    11    2
    18    10    12   am
    19    12    13    1
    20    13    14    1
    21    14    15    1
    22    15    16   ar
    23    16    17   ar
    24    17    18   ar
    25    18    22    1
    26    22    23    1
    27    22    24    1
    28    22    25    1
    29    18    19   ar
    30    19    20   ar
    31    20    21    1
    32     7     8    1
    33    33    28    1
    34     8     1    1
    35     7     3    1
    36    21    12    1
    37    20    15   ar
    38    26    27    1
    39     5     9    1
@<TRIPOS>MOLECULE
*****
 35 39 0 0 0
SMALL
GASTEIGER

@<TRIPOS>ATOM
      1 C         140.8017  142.0023  161.2946 C.3     1  UNL1        0.0546
      2 C         139.6296  142.8943  161.0108 C.3     1  UNL1        0.0176
      3 C         139.9020  144.2304  161.6358 C.3     1  UNL1        0.0266
      4 C         139.3460  145.6075  161.8466 C.3     1  UNL1        0.0691
      5 N         140.3427  146.3923  162.6471 N.3     1  UNL1       -0.2971
      6 C         141.5148  145.5003  162.9309 C.3     1  UNL1        0.0773
      7 C         141.2424  144.1642  162.3059 C.3     1  UNL1        0.0861
      8 C         141.7984  142.7871  162.0950 C.3     1  UNL1        0.0257
      9 H         139.9196  146.6973  163.5236 H       1  UNL1        0.1233
     10 C         142.5828  144.0979  162.9759 C.2     1  UNL1        0.2264
     11 O         143.7974  144.6342  162.2782 O.2     1  UNL1       -0.2748
     12 N         142.7085  143.4952  164.3438 N.am    1  UNL1       -0.2750
     13 C         144.0488  143.4288  165.0139 C.3     1  UNL1        0.1000
     14 C         144.1745  142.8262  166.3817 C.3     1  UNL1        0.0670
     15 C         142.9598  142.2898  167.0794 C.ar    1  UNL1        0.0583
     16 N         143.0855  141.6871  168.4473 N.ar    1  UNL1       -0.2484
     17 C         141.8708  141.1508  169.1451 C.ar    1  UNL1        0.1023
     18 C         140.5304  141.2171  168.4749 C.ar    1  UNL1        0.0902
     19 C         140.4047  141.8198  167.1071 C.ar    1  UNL1        0.0040
     20 C         141.6194  142.3562  166.4094 C.ar    1  UNL1        0.0113
     21 C         141.4938  142.9588  165.0416 C.3     1  UNL1        0.1213
     22 C         139.3157  140.6808  169.1727 C.3     1  UNL1        0.4200
     23 F         138.1010  140.1444  169.8704 F       1  UNL1       -0.1658
     24 F         139.1747  139.6255  168.1160 F       1  UNL1       -0.1658
     25 F         139.4567  141.7361  170.2294 F       1  UNL1       -0.1658
     26 N         140.9508  140.5758  160.8551 N.3     1  UNL1       -0.2975
     27 H         140.6438  140.5335  159.8833 H       1  UNL1        0.1232
     28 C         140.9580  138.6288  162.5752 C.3     1  UNL1        0.1591
     29 C         140.2319  137.5389  163.3066 C.3     1  UNL1        0.1729
     30 O         138.7726  137.3061  163.0493 O.3     1  UNL1       -0.3511
     31 C         138.0393  138.1633  162.0605 C.3     1  UNL1        0.1437
     32 C         138.7654  139.2532  161.3291 C.3     1  UNL1        0.0503
     33 C         140.2248  139.4859  161.5865 C.3     1  UNL1        0.0865
     34 C         142.8517  139.6312  164.0447 C.3     1  UNL1        0.1742
     35 O         142.4173  138.8616  162.8326 O.3     1  UNL1       -0.3496
@<TRIPOS>BOND
     1    34    35    1
     2    35    28    1
     3    28    29    1
     4    29    30    1
     5    30    31    1
     6    31    32    1
     7    32    33    1
     8    33    26    1
     9     1    26    1
    10     1     2    1
    11     3     2    1
    12     3     4    1
    13     4     5    1
    14     5     6    1
    15     6     7    1
    16     7    10    1
    17    10    11    2
    18    10    12   am
    19    12    13    1
    20    13    14    1
    21    14    15    1
    22    15    16   ar
    23    16    17   ar
    24    17    18   ar
    25    18    22    1
    26    22    23    1
    27    22    24    1
    28    22    25    1
    29    18    19   ar
    30    19    20   ar
    31    20    21    1
    32     7     8    1
    33    33    28    1
    34     8     1    1
    35     7     3    1
    36    21    12    1
    37    20    15   ar
    38    26    27    1
    39     5     9    1
@<TRIPOS>MOLECULE
*****
 35 39 0 0 0
SMALL
GASTEIGER

@<TRIPOS>ATOM
      1 C         142.8527  143.9400  163.5799 C.3     1  UNL1        0.0546
      2 C         142.0635  145.1955  163.8057 C.3     1  UNL1        0.0176
      3 C         141.1131  145.3586  162.6567 C.3     1  UNL1        0.0266
      4 C         140.0380  146.2353  162.0861 C.3     1  UNL1        0.0691
      5 N         139.5754  145.6224  160.7975 N.3     1  UNL1       -0.2971
      6 C         140.3646  144.3670  160.5717 C.3     1  UNL1        0.0773
      7 C         141.3150  144.2039  161.7207 C.3     1  UNL1        0.0861
      8 C         142.3900  143.3272  162.2913 C.3     1  UNL1        0.0257
      9 H         139.7331  146.2735  160.0284 H       1  UNL1        0.1233
     10 C         141.5168  143.0492  160.7848 C.2     1  UNL1        0.2264
     11 O         142.1748  143.2681  159.4547 O.2     1  UNL1       -0.2748
     12 N         141.0606  141.6757  161.1789 N.am    1  UNL1       -0.2750
     13 C         141.2625  140.5210  160.2430 C.3     1  UNL1        0.1000
     14 C         140.8063  139.1475  160.6372 C.3     1  UNL1        0.0670
     15 C         140.1483  138.9287  161.9673 C.ar    1  UNL1        0.0583
     16 N         139.6922  137.5551  162.3614 N.ar    1  UNL1       -0.2484
     17 C         139.0342  137.3363  163.6915 C.ar    1  UNL1        0.1023
     18 C         138.8323  138.4910  164.6275 C.ar    1  UNL1        0.0902
     19 C         139.2885  139.8645  164.2333 C.ar    1  UNL1        0.0040
     20 C         139.9465  140.0833  162.9032 C.ar    1  UNL1        0.0113
     21 C         140.4026  141.4568  162.5090 C.3     1  UNL1        0.1213
     22 C         138.1743  138.2722  165.9576 C.3     1  UNL1        0.4200
     23 F         137.5163  138.0533  167.2876 F       1  UNL1       -0.1658
     24 F         138.2923  136.7884  165.7718 F       1  UNL1       -0.1658
     25 F         138.0564  139.7559  166.1433 F       1  UNL1       -0.1658
     26 N         143.9175  143.3933  164.4839 N.3     1  UNL1       -0.2975
     27 H         144.8126  143.5830  164.0330 H       1  UNL1        0.1232
     28 C         143.0180  141.4405  165.9425 C.3     1  UNL1        0.1591
     29 C         143.0171  139.9858  166.3082 C.3     1  UNL1        0.1729
     30 O         143.9149  139.0291  165.5811 O.3     1  UNL1       -0.3511
     31 C         144.8136  139.5271  164.4882 C.3     1  UNL1        0.1437
     32 C         144.8145  140.9819  164.1225 C.3     1  UNL1        0.0503
     33 C         143.9167  141.9386  164.8497 C.3     1  UNL1        0.0865
     34 C         140.6864  142.5436  166.2540 C.3     1  UNL1        0.1742
     35 O         142.1203  142.3972  166.6697 O.3     1  UNL1       -0.3496
@<TRIPOS>BOND
     1    34    35    1
     2    35    28    1
     3    28    29    1
     4    29    30    1
     5    30    31    1
     6    31    32    1
     7    32    33    1
     8    33    26    1
     9     1    26    1
    10     1     2    1
    11     3     2    1
    12     3     4    1
    13     4     5    1
    14     5     6    1
    15     6     7    1
    16     7    10    1
    17    10    11    2
    18    10    12   am
    19    12    13    1
    20    13    14    1
    21    14    15    1
    22    15    16   ar
    23    16    17   ar
    24    17    18   ar
    25    18    22    1
    26    22    23    1
    27    22    24    1
    28    22    25    1
    29    18    19   ar
    30    19    20   ar
    31    20    21    1
    32     7     8    1
    33    33    28    1
    34     8     1    1
    35     7     3    1
    36    21    12    1
    37    20    15   ar
    38    26    27    1
    39     5     9    1
