@<TRIPOS>MOLECULE
*****
 33 36 0 0 0
SMALL
GASTEIGER

@<TRIPOS>ATOM
      1 C         137.7128  141.1861  161.8059 C.3     1  UNL1        0.0722
      2 N         138.2535  141.0098  163.1939 N.3     1  UNL1       -0.2727
      3 C         139.1208  142.0721  163.8015 C.3     1  UNL1        0.0725
      4 C         139.6616  141.8959  165.1895 C.3     1  UNL1        0.0234
      5 C         139.3350  140.6571  165.9699 C.3     1  UNL1        0.0464
      6 C         138.4677  139.5948  165.3623 C.3     1  UNL1        0.0234
      7 C         137.9270  139.7711  163.9743 C.3     1  UNL1        0.0725
      8 C         139.8758  140.4808  167.3579 C.ar    1  UNL1        0.1003
      9 N         139.2353  139.6899  168.4598 N.ar    1  UNL1       -0.0814
     10 O         140.1156  139.7848  169.6706 O.2     1  UNL1       -0.3536
     11 C         141.3002  140.6344  169.3170 C.ar    1  UNL1        0.1787
     12 C         142.4947  141.0718  170.1118 C.ar    1  UNL1        0.0698
     13 C         143.5409  141.9395  169.4773 C.ar    1  UNL1        0.1433
     14 F         144.7354  142.3770  170.2722 F       1  UNL1       -0.2041
     15 C         143.3926  142.3697  168.0480 C.ar    1  UNL1        0.0299
     16 C         142.1981  141.9322  167.2532 C.ar    1  UNL1        0.0067
     17 C         141.1519  141.0646  167.8876 C.ar    1  UNL1        0.0540
     18 C         137.8465  140.0790  160.8027 C.3     1  UNL1        0.0212
     19 C         139.1346  139.8948  160.0563 C.3     1  UNL1        0.0488
     20 C         139.8579  138.5824  160.1214 C.3     1  UNL1        0.2054
     21 O         139.7881  137.7484  161.3662 O.3     1  UNL1       -0.4755
     22 C         142.4756  139.5739  163.6456 C.ar    1  UNL1        0.0838
     23 C         141.5860  139.2574  162.4800 C.ar    1  UNL1        0.0437
     24 C         140.6777  138.0649  162.5318 C.ar    1  UNL1        0.1388
     25 C         140.6589  137.1888  163.7492 C.ar    1  UNL1        0.0392
     26 C         141.5484  137.5052  164.9148 C.ar    1  UNL1        0.0329
     27 C         142.4567  138.6977  164.8630 C.ar    1  UNL1        0.1446
     28 F         143.3463  139.0142  166.0285 F       1  UNL1       -0.2040
     29 C         145.7791  141.7673  163.4859 C.3     1  UNL1        0.1109
     30 N         144.8706  140.5748  163.5376 N.am    1  UNL1       -0.2991
     31 C         143.3840  140.7665  163.5938 C.2     1  UNL1        0.2482
     32 O         142.8058  142.1504  163.5983 O.2     1  UNL1       -0.2701
     33 H         145.2501  139.6664  163.5347 H       1  UNL1        0.1498
@<TRIPOS>BOND
     1    29    30    1
     2    30    31   am
     3    31    32    2
     4    31    22    1
     5    22    23   ar
     6    23    24   ar
     7    24    21    1
     8    21    20    1
     9    20    19    1
    10    19    18    1
    11    18     1    1
    12     1     2    1
    13     2     3    1
    14     3     4    1
    15     4     5    1
    16     5     8    1
    17     8     9   ar
    18     9    10   ar
    19    10    11   ar
    20    11    12   ar
    21    12    13   ar
    22    13    14    1
    23    13    15   ar
    24    15    16   ar
    25    16    17   ar
    26     5     6    1
    27     6     7    1
    28    24    25   ar
    29    25    26   ar
    30    26    27   ar
    31    27    28    1
    32    27    22   ar
    33     7     2    1
    34    17     8   ar
    35    17    11   ar
    36    30    33    1
@<TRIPOS>MOLECULE
*****
 33 36 0 0 0
SMALL
GASTEIGER

@<TRIPOS>ATOM
      1 C         138.1786  138.4393  161.4608 C.3     1  UNL1        0.0722
      2 N         138.4830  138.7559  162.8950 N.3     1  UNL1       -0.2727
      3 C         138.2772  140.1474  163.4159 C.3     1  UNL1        0.0725
      4 C         138.5816  140.4641  164.8502 C.3     1  UNL1        0.0234
      5 C         139.0920  139.3891  165.7636 C.3     1  UNL1        0.0464
      6 C         139.2978  137.9977  165.2426 C.3     1  UNL1        0.0234
      7 C         138.9933  137.6811  163.8084 C.3     1  UNL1        0.0725
      8 C         139.3964  139.7058  167.1978 C.ar    1  UNL1        0.1003
      9 N         138.5294  139.3763  168.3767 N.ar    1  UNL1       -0.0814
     10 O         139.2185  139.8744  169.6124 O.2     1  UNL1       -0.3536
     11 C         140.5114  140.5117  169.1973 C.ar    1  UNL1        0.1787
     12 C         141.6027  141.1735  169.9853 C.ar    1  UNL1        0.0698
     13 C         142.8040  141.7310  169.2810 C.ar    1  UNL1        0.1433
     14 F         143.8954  142.3928  170.0691 F       1  UNL1       -0.2041
     15 C         142.9139  141.6268  167.7887 C.ar    1  UNL1        0.0299
     16 C         141.8226  140.9650  167.0007 C.ar    1  UNL1        0.0067
     17 C         140.6213  140.4075  167.7049 C.ar    1  UNL1        0.0540
     18 C         139.2907  138.0856  160.5184 C.3     1  UNL1        0.0212
     19 C         140.6162  138.7792  160.6286 C.3     1  UNL1        0.0488
     20 C         141.7987  138.0512  161.1957 C.3     1  UNL1        0.2054
     21 O         142.1152  138.1590  162.6580 O.3     1  UNL1       -0.4755
     22 C         142.8062  141.9163  163.7326 C.ar    1  UNL1        0.0838
     23 C         142.1070  140.6989  163.2045 C.ar    1  UNL1        0.0437
     24 C         142.8145  139.3764  163.1861 C.ar    1  UNL1        0.1388
     25 C         144.2213  139.2713  163.6960 C.ar    1  UNL1        0.0392
     26 C         144.9205  140.4887  164.2241 C.ar    1  UNL1        0.0329
     27 C         144.2130  141.8112  164.2425 C.ar    1  UNL1        0.1446
     28 F         144.9123  143.0286  164.7707 F       1  UNL1       -0.2040
     29 C         140.0726  144.6969  164.4715 C.3     1  UNL1        0.1109
     30 N         140.7801  143.3744  164.4531 N.am    1  UNL1       -0.2991
     31 C         142.0988  143.2390  163.7510 C.2     1  UNL1        0.2482
     32 O         142.7099  144.4259  163.0674 O.2     1  UNL1       -0.2701
     33 H         140.3790  142.5952  164.9017 H       1  UNL1        0.1498
@<TRIPOS>BOND
     1    29    30    1
     2    30    31   am
     3    31    32    2
     4    31    22    1
     5    22    23   ar
     6    23    24   ar
     7    24    21    1
     8    21    20    1
     9    20    19    1
    10    19    18    1
    11    18     1    1
    12     1     2    1
    13     2     3    1
    14     3     4    1
    15     4     5    1
    16     5     8    1
    17     8     9   ar
    18     9    10   ar
    19    10    11   ar
    20    11    12   ar
    21    12    13   ar
    22    13    14    1
    23    13    15   ar
    24    15    16   ar
    25    16    17   ar
    26     5     6    1
    27     6     7    1
    28    24    25   ar
    29    25    26   ar
    30    26    27   ar
    31    27    28    1
    32    27    22   ar
    33     7     2    1
    34    17     8   ar
    35    17    11   ar
    36    30    33    1
@<TRIPOS>MOLECULE
*****
 33 36 0 0 0
SMALL
GASTEIGER

@<TRIPOS>ATOM
      1 C         138.0130  138.8397  161.3403 C.3     1  UNL1        0.0722
      2 N         138.3224  139.0391  162.7944 N.3     1  UNL1       -0.2727
      3 C         138.9560  137.9329  163.5850 C.3     1  UNL1        0.0725
      4 C         139.2655  138.1323  165.0391 C.3     1  UNL1        0.0234
      5 C         138.9413  139.4380  165.7027 C.3     1  UNL1        0.0464
      6 C         138.3077  140.5440  164.9122 C.3     1  UNL1        0.0234
      7 C         137.9983  140.3446  163.4581 C.3     1  UNL1        0.0725
      8 C         139.2508  139.6374  167.1569 C.ar    1  UNL1        0.1003
      9 N         138.3909  139.2075  168.3083 N.ar    1  UNL1       -0.0814
     10 O         139.0832  139.6062  169.5779 O.2     1  UNL1       -0.3536
     11 C         140.3709  140.2823  169.2111 C.ar    1  UNL1        0.1787
     12 C         141.4625  140.8830  170.0463 C.ar    1  UNL1        0.0698
     13 C         142.6577  141.5029  169.3851 C.ar    1  UNL1        0.1433
     14 F         143.7494  142.1036  170.2203 F       1  UNL1       -0.2041
     15 C         142.7613  141.5222  167.8889 C.ar    1  UNL1        0.0299
     16 C         141.6697  140.9216  167.0537 C.ar    1  UNL1        0.0067
     17 C         140.4745  140.3016  167.7148 C.ar    1  UNL1        0.0540
     18 C         137.6625  140.0172  160.4798 C.3     1  UNL1        0.0212
     19 C         138.7275  140.9919  160.0725 C.3     1  UNL1        0.0488
     20 C         138.3453  142.3410  159.5397 C.3     1  UNL1        0.2054
     21 O         138.9279  143.5811  160.1502 O.3     1  UNL1       -0.4755
     22 C         140.9580  143.2320  163.5423 C.ar    1  UNL1        0.0838
     23 C         140.6253  143.2010  162.0800 C.ar    1  UNL1        0.0437
     24 C         139.2606  143.6120  161.6125 C.ar    1  UNL1        0.1388
     25 C         138.2286  144.0540  162.6073 C.ar    1  UNL1        0.0392
     26 C         138.5613  144.0850  164.0696 C.ar    1  UNL1        0.0329
     27 C         139.9260  143.6739  164.5371 C.ar    1  UNL1        0.1446
     28 F         140.2587  143.7049  165.9994 F       1  UNL1       -0.2040
     29 C         144.1842  141.0197  164.2115 C.3     1  UNL1        0.1109
     30 N         142.8195  141.4308  163.7439 N.am    1  UNL1       -0.2991
     31 C         142.3228  142.8210  164.0100 C.2     1  UNL1        0.2482
     32 O         143.1906  143.8000  164.7435 O.2     1  UNL1       -0.2701
     33 H         142.2499  140.7882  163.2624 H       1  UNL1        0.1498
@<TRIPOS>BOND
     1    29    30    1
     2    30    31   am
     3    31    32    2
     4    31    22    1
     5    22    23   ar
     6    23    24   ar
     7    24    21    1
     8    21    20    1
     9    20    19    1
    10    19    18    1
    11    18     1    1
    12     1     2    1
    13     2     3    1
    14     3     4    1
    15     4     5    1
    16     5     8    1
    17     8     9   ar
    18     9    10   ar
    19    10    11   ar
    20    11    12   ar
    21    12    13   ar
    22    13    14    1
    23    13    15   ar
    24    15    16   ar
    25    16    17   ar
    26     5     6    1
    27     6     7    1
    28    24    25   ar
    29    25    26   ar
    30    26    27   ar
    31    27    28    1
    32    27    22   ar
    33     7     2    1
    34    17     8   ar
    35    17    11   ar
    36    30    33    1
@<TRIPOS>MOLECULE
*****
 33 36 0 0 0
SMALL
GASTEIGER

@<TRIPOS>ATOM
      1 C         144.1994  139.8112  162.2698 C.3     1  UNL1        0.0722
      2 N         143.7680  139.8541  163.7058 N.3     1  UNL1       -0.2727
      3 C         143.8310  141.1434  164.4697 C.3     1  UNL1        0.0725
      4 C         143.3996  141.1863  165.9057 C.3     1  UNL1        0.0234
      5 C         142.9051  139.9397  166.5778 C.3     1  UNL1        0.0464
      6 C         142.8422  138.6504  165.8139 C.3     1  UNL1        0.0234
      7 C         143.2736  138.6076  164.3779 C.3     1  UNL1        0.0725
      8 C         142.4737  139.9825  168.0138 C.ar    1  UNL1        0.1003
      9 N         142.8351  138.9840  169.0731 N.ar    1  UNL1       -0.0814
     10 O         142.1899  139.4158  170.3565 O.2     1  UNL1       -0.3536
     11 C         141.4297  140.6813  170.0904 C.ar    1  UNL1        0.1787
     12 C         140.6005  141.5598  170.9794 C.ar    1  UNL1        0.0698
     13 C         139.9466  142.7887  170.4205 C.ar    1  UNL1        0.1433
     14 F         139.1173  143.6673  171.3095 F       1  UNL1       -0.2041
     15 C         140.1221  143.1389  168.9726 C.ar    1  UNL1        0.0299
     16 C         140.9513  142.2604  168.0835 C.ar    1  UNL1        0.0067
     17 C         141.6051  141.0315  168.6425 C.ar    1  UNL1        0.0540
     18 C         143.9269  138.5911  161.4409 C.3     1  UNL1        0.0212
     19 C         143.0023  138.6761  160.2627 C.3     1  UNL1        0.0488
     20 C         141.5173  138.6412  160.4708 C.3     1  UNL1        0.2054
     21 O         140.9155  137.6432  161.4152 O.3     1  UNL1       -0.4755
     22 C         138.7051  139.9381  163.7810 C.ar    1  UNL1        0.0838
     23 C         139.4873  139.4675  162.5908 C.ar    1  UNL1        0.0437
     24 C         140.1333  138.1138  162.6055 C.ar    1  UNL1        0.1388
     25 C         139.9973  137.2309  163.8104 C.ar    1  UNL1        0.0392
     26 C         139.2151  137.7015  165.0006 C.ar    1  UNL1        0.0329
     27 C         138.5690  139.0551  164.9859 C.ar    1  UNL1        0.1446
     28 F         137.7868  139.5258  166.1761 F       1  UNL1       -0.2040
     29 C         137.9353  143.7354  164.6402 C.3     1  UNL1        0.1109
     30 N         138.5814  142.3818  164.6547 N.am    1  UNL1       -0.2991
     31 C         138.0589  141.2918  163.7664 C.2     1  UNL1        0.2482
     32 O         136.8905  141.5554  162.8636 O.2     1  UNL1       -0.2701
     33 H         139.3483  142.2087  165.2472 H       1  UNL1        0.1498
@<TRIPOS>BOND
     1    29    30    1
     2    30    31   am
     3    31    32    2
     4    31    22    1
     5    22    23   ar
     6    23    24   ar
     7    24    21    1
     8    21    20    1
     9    20    19    1
    10    19    18    1
    11    18     1    1
    12     1     2    1
    13     2     3    1
    14     3     4    1
    15     4     5    1
    16     5     8    1
    17     8     9   ar
    18     9    10   ar
    19    10    11   ar
    20    11    12   ar
    21    12    13   ar
    22    13    14    1
    23    13    15   ar
    24    15    16   ar
    25    16    17   ar
    26     5     6    1
    27     6     7    1
    28    24    25   ar
    29    25    26   ar
    30    26    27   ar
    31    27    28    1
    32    27    22   ar
    33     7     2    1
    34    17     8   ar
    35    17    11   ar
    36    30    33    1
@<TRIPOS>MOLECULE
*****
 33 36 0 0 0
SMALL
GASTEIGER

@<TRIPOS>ATOM
      1 C         137.9750  139.6669  161.1199 C.3     1  UNL1        0.0722
      2 N         138.8320  139.5972  162.3490 N.3     1  UNL1       -0.2727
      3 C         138.2474  139.1186  163.6448 C.3     1  UNL1        0.0725
      4 C         139.1044  139.0489  164.8739 C.3     1  UNL1        0.0234
      5 C         140.5461  139.4578  164.8072 C.3     1  UNL1        0.0464
      6 C         141.1306  139.9364  163.5114 C.3     1  UNL1        0.0234
      7 C         140.2736  140.0061  162.2823 C.3     1  UNL1        0.0725
      8 C         141.4031  139.3882  166.0363 C.ar    1  UNL1        0.1003
      9 N         142.8232  138.9086  166.0949 N.ar    1  UNL1       -0.0814
     10 O         143.2882  139.0099  167.5174 O.2     1  UNL1       -0.3536
     11 C         142.1556  139.5520  168.3379 C.ar    1  UNL1        0.1787
     12 C         142.0346  139.8630  169.8003 C.ar    1  UNL1        0.0698
     13 C         140.7486  140.4079  170.3473 C.ar    1  UNL1        0.1433
     14 F         140.6275  140.7189  171.8097 F       1  UNL1       -0.2041
     15 C         139.5835  140.6417  169.4318 C.ar    1  UNL1        0.0299
     16 C         139.7045  140.3307  167.9695 C.ar    1  UNL1        0.0067
     17 C         140.9905  139.7859  167.4225 C.ar    1  UNL1        0.0540
     18 C         138.5992  139.9477  159.7852 C.3     1  UNL1        0.0212
     19 C         138.3196  141.2441  159.0844 C.3     1  UNL1        0.0488
     20 C         138.8156  142.5341  159.6675 C.3     1  UNL1        0.2054
     21 O         138.0282  143.2231  160.7424 O.3     1  UNL1       -0.4755
     22 C         140.4016  143.5749  163.9036 C.ar    1  UNL1        0.0838
     23 C         139.9181  143.6042  162.4839 C.ar    1  UNL1        0.0437
     24 C         138.5117  143.1938  162.1620 C.ar    1  UNL1        0.1388
     25 C         137.5888  142.7541  163.2597 C.ar    1  UNL1        0.0392
     26 C         138.0723  142.7249  164.6794 C.ar    1  UNL1        0.0329
     27 C         139.4786  143.1352  165.0013 C.ar    1  UNL1        0.1446
     28 F         139.9621  143.1059  166.4209 F       1  UNL1       -0.2040
     29 C         144.1765  143.3941  165.1149 C.3     1  UNL1        0.1109
     30 N         142.7701  142.9839  164.7929 N.am    1  UNL1       -0.2991
     31 C         141.8080  143.9852  164.2257 C.2     1  UNL1        0.2482
     32 O         142.2522  145.3967  163.9805 O.2     1  UNL1       -0.2701
     33 H         142.4785  142.0574  164.9537 H       1  UNL1        0.1498
@<TRIPOS>BOND
     1    29    30    1
     2    30    31   am
     3    31    32    2
     4    31    22    1
     5    22    23   ar
     6    23    24   ar
     7    24    21    1
     8    21    20    1
     9    20    19    1
    10    19    18    1
    11    18     1    1
    12     1     2    1
    13     2     3    1
    14     3     4    1
    15     4     5    1
    16     5     8    1
    17     8     9   ar
    18     9    10   ar
    19    10    11   ar
    20    11    12   ar
    21    12    13   ar
    22    13    14    1
    23    13    15   ar
    24    15    16   ar
    25    16    17   ar
    26     5     6    1
    27     6     7    1
    28    24    25   ar
    29    25    26   ar
    30    26    27   ar
    31    27    28    1
    32    27    22   ar
    33     7     2    1
    34    17     8   ar
    35    17    11   ar
    36    30    33    1
@<TRIPOS>MOLECULE
*****
 33 36 0 0 0
SMALL
GASTEIGER

@<TRIPOS>ATOM
      1 C         139.7955  145.7994  161.7662 C.3     1  UNL1        0.0722
      2 N         139.7337  144.7256  162.8117 N.3     1  UNL1       -0.2727
      3 C         141.0008  144.1504  163.3719 C.3     1  UNL1        0.0725
      4 C         140.9390  143.0766  164.4174 C.3     1  UNL1        0.0234
      5 C         139.6101  142.5779  164.9027 C.3     1  UNL1        0.0464
      6 C         138.3431  143.1530  164.3424 C.3     1  UNL1        0.0234
      7 C         138.4049  144.2268  163.2969 C.3     1  UNL1        0.0725
      8 C         139.5483  141.5040  165.9482 C.ar    1  UNL1        0.1003
      9 N         139.0266  140.1114  165.7519 N.ar    1  UNL1       -0.0814
     10 O         139.1533  139.3810  167.0560 O.2     1  UNL1       -0.3536
     11 C         139.7532  140.3222  168.0581 C.ar    1  UNL1        0.1787
     12 C         140.1086  140.1540  169.5056 C.ar    1  UNL1        0.0698
     13 C         140.7083  141.2979  170.2684 C.ar    1  UNL1        0.1433
     14 F         141.0638  141.1297  171.7160 F       1  UNL1       -0.2041
     15 C         140.9524  142.6100  169.5838 C.ar    1  UNL1        0.0299
     16 C         140.5969  142.7782  168.1363 C.ar    1  UNL1        0.0067
     17 C         139.9973  141.6343  167.3735 C.ar    1  UNL1        0.0540
     18 C         140.5818  145.5771  160.5082 C.3     1  UNL1        0.0212
     19 C         140.1047  144.5828  159.4914 C.3     1  UNL1        0.0488
     20 C         140.0905  143.1199  159.8223 C.3     1  UNL1        0.2054
     21 O         138.8301  142.4753  160.3183 O.3     1  UNL1       -0.4755
     22 C         140.2259  139.3893  162.3866 C.ar    1  UNL1        0.0838
     23 C         140.1647  140.7120  161.6820 C.ar    1  UNL1        0.0437
     24 C         138.8913  141.1525  161.0230 C.ar    1  UNL1        0.1388
     25 C         137.6790  140.2703  161.0686 C.ar    1  UNL1        0.0392
     26 C         137.7402  138.9475  161.7733 C.ar    1  UNL1        0.0329
     27 C         139.0137  138.5070  162.4323 C.ar    1  UNL1        0.1446
     28 F         139.0749  137.1843  163.1370 F       1  UNL1       -0.2040
     29 C         143.2146  139.1495  164.9868 C.3     1  UNL1        0.1109
     30 N         141.9412  139.5900  164.3276 N.am    1  UNL1       -0.2991
     31 C         141.4994  138.9486  163.0457 C.2     1  UNL1        0.2482
     32 O         142.3308  137.8668  162.4228 O.2     1  UNL1       -0.2701
     33 H         141.3954  140.3001  164.7364 H       1  UNL1        0.1498
@<TRIPOS>BOND
     1    29    30    1
     2    30    31   am
     3    31    32    2
     4    31    22    1
     5    22    23   ar
     6    23    24   ar
     7    24    21    1
     8    21    20    1
     9    20    19    1
    10    19    18    1
    11    18     1    1
    12     1     2    1
    13     2     3    1
    14     3     4    1
    15     4     5    1
    16     5     8    1
    17     8     9   ar
    18     9    10   ar
    19    10    11   ar
    20    11    12   ar
    21    12    13   ar
    22    13    14    1
    23    13    15   ar
    24    15    16   ar
    25    16    17   ar
    26     5     6    1
    27     6     7    1
    28    24    25   ar
    29    25    26   ar
    30    26    27   ar
    31    27    28    1
    32    27    22   ar
    33     7     2    1
    34    17     8   ar
    35    17    11   ar
    36    30    33    1
@<TRIPOS>MOLECULE
*****
 33 36 0 0 0
SMALL
GASTEIGER

@<TRIPOS>ATOM
      1 C         141.1602  137.8519  162.1782 C.3     1  UNL1        0.0722
      2 N         140.9692  138.4131  163.5561 N.3     1  UNL1       -0.2727
      3 C         139.7001  139.1334  163.9033 C.3     1  UNL1        0.0725
      4 C         139.5091  139.6945  165.2813 C.3     1  UNL1        0.0234
      5 C         140.5873  139.5353  166.3120 C.3     1  UNL1        0.0464
      6 C         141.8563  138.8150  165.9648 C.3     1  UNL1        0.0234
      7 C         142.0473  138.2538  164.5868 C.3     1  UNL1        0.0725
      8 C         140.3963  140.0964  167.6899 C.ar    1  UNL1        0.1003
      9 N         139.2281  139.8356  168.5940 N.ar    1  UNL1       -0.0814
     10 O         139.4498  140.5949  169.8685 O.2     1  UNL1       -0.3536
     11 C         140.7550  141.3249  169.7521 C.ar    1  UNL1        0.1787
     12 C         141.4864  142.2304  170.6982 C.ar    1  UNL1        0.0698
     13 C         142.8027  142.8278  170.2979 C.ar    1  UNL1        0.1433
     14 F         143.5342  143.7333  171.2440 F       1  UNL1       -0.2041
     15 C         143.3877  142.5197  168.9514 C.ar    1  UNL1        0.0299
     16 C         142.6563  141.6142  168.0053 C.ar    1  UNL1        0.0067
     17 C         141.3400  141.0168  168.4057 C.ar    1  UNL1        0.0540
     18 C         142.5361  137.4997  161.6959 C.3     1  UNL1        0.0212
     19 C         142.9839  137.9262  160.3293 C.3     1  UNL1        0.0488
     20 C         143.5875  139.2846  160.1279 C.3     1  UNL1        0.2054
     21 O         144.3913  139.9182  161.2245 O.3     1  UNL1       -0.4755
     22 C         141.7281  142.2676  162.9958 C.ar    1  UNL1        0.0838
     23 C         142.4097  141.4324  161.9528 C.ar    1  UNL1        0.0437
     24 C         143.7097  140.7535  162.2674 C.ar    1  UNL1        0.1388
     25 C         144.3281  140.9098  163.6251 C.ar    1  UNL1        0.0392
     26 C         143.6465  141.7450  164.6680 C.ar    1  UNL1        0.0329
     27 C         142.3465  142.4239  164.3534 C.ar    1  UNL1        0.1446
     28 F         141.6650  143.2592  165.3964 F       1  UNL1       -0.2040
     29 C         137.9527  142.8170  161.9030 C.3     1  UNL1        0.1109
     30 N         139.2527  142.1382  162.2176 N.am    1  UNL1       -0.2991
     31 C         140.4281  142.9466  162.6812 C.2     1  UNL1        0.2482
     32 O         140.3034  144.4339  162.8303 O.2     1  UNL1       -0.2701
     33 H         139.3346  141.1620  162.1197 H       1  UNL1        0.1498
@<TRIPOS>BOND
     1    29    30    1
     2    30    31   am
     3    31    32    2
     4    31    22    1
     5    22    23   ar
     6    23    24   ar
     7    24    21    1
     8    21    20    1
     9    20    19    1
    10    19    18    1
    11    18     1    1
    12     1     2    1
    13     2     3    1
    14     3     4    1
    15     4     5    1
    16     5     8    1
    17     8     9   ar
    18     9    10   ar
    19    10    11   ar
    20    11    12   ar
    21    12    13   ar
    22    13    14    1
    23    13    15   ar
    24    15    16   ar
    25    16    17   ar
    26     5     6    1
    27     6     7    1
    28    24    25   ar
    29    25    26   ar
    30    26    27   ar
    31    27    28    1
    32    27    22   ar
    33     7     2    1
    34    17     8   ar
    35    17    11   ar
    36    30    33    1
@<TRIPOS>MOLECULE
*****
 33 36 0 0 0
SMALL
GASTEIGER

@<TRIPOS>ATOM
      1 C         143.7083  138.0134  160.9916 C.3     1  UNL1        0.0722
      2 N         143.4890  138.3599  162.4344 N.3     1  UNL1       -0.2727
      3 C         144.4808  139.2219  163.1578 C.3     1  UNL1        0.0725
      4 C         144.2616  139.5685  164.6007 C.3     1  UNL1        0.0234
      5 C         143.0504  139.0530  165.3202 C.3     1  UNL1        0.0464
      6 C         142.0587  138.1911  164.5967 C.3     1  UNL1        0.0234
      7 C         142.2779  137.8446  163.1539 C.3     1  UNL1        0.0725
      8 C         142.8312  139.3996  166.7630 C.ar    1  UNL1        0.1003
      9 N         143.3356  138.6228  167.9429 N.ar    1  UNL1       -0.0814
     10 O         142.8852  139.3270  169.1883 O.2     1  UNL1       -0.3536
     11 C         142.1023  140.5390  168.7782 C.ar    1  UNL1        0.1787
     12 C         141.4156  141.6075  169.5761 C.ar    1  UNL1        0.0698
     13 C         140.6955  142.7210  168.8749 C.ar    1  UNL1        0.1433
     14 F         140.0087  143.7896  169.6727 F       1  UNL1       -0.2041
     15 C         140.6621  142.7659  167.3760 C.ar    1  UNL1        0.0299
     16 C         141.3488  141.6973  166.5782 C.ar    1  UNL1        0.0067
     17 C         142.0690  140.5839  167.2793 C.ar    1  UNL1        0.0540
     18 C         142.5441  137.9632  160.0470 C.3     1  UNL1        0.0212
     19 C         141.9762  139.2343  159.4885 C.3     1  UNL1        0.0488
     20 C         141.4020  140.2682  160.4112 C.3     1  UNL1        0.2054
     21 O         142.2033  141.4860  160.7646 O.3     1  UNL1       -0.4755
     22 C         139.8636  144.3854  162.1316 C.ar    1  UNL1        0.0838
     23 C         140.5411  143.0535  162.0015 C.ar    1  UNL1        0.0437
     24 C         141.5258  142.8179  160.8947 C.ar    1  UNL1        0.1388
     25 C         141.8328  143.9141  159.9180 C.ar    1  UNL1        0.0392
     26 C         141.1552  145.2460  160.0481 C.ar    1  UNL1        0.0329
     27 C         140.1706  145.4816  161.1549 C.ar    1  UNL1        0.1446
     28 F         139.4930  146.8135  161.2851 F       1  UNL1       -0.2040
     29 C         138.3818  145.1166  165.7399 C.3     1  UNL1        0.1109
     30 N         139.3663  144.8809  164.6331 N.am    1  UNL1       -0.2991
     31 C         138.8789  144.6211  163.2384 C.2     1  UNL1        0.2482
     32 O         137.4071  144.5970  162.9506 O.2     1  UNL1       -0.2701
     33 H         140.3324  144.8966  164.8219 H       1  UNL1        0.1498
@<TRIPOS>BOND
     1    29    30    1
     2    30    31   am
     3    31    32    2
     4    31    22    1
     5    22    23   ar
     6    23    24   ar
     7    24    21    1
     8    21    20    1
     9    20    19    1
    10    19    18    1
    11    18     1    1
    12     1     2    1
    13     2     3    1
    14     3     4    1
    15     4     5    1
    16     5     8    1
    17     8     9   ar
    18     9    10   ar
    19    10    11   ar
    20    11    12   ar
    21    12    13   ar
    22    13    14    1
    23    13    15   ar
    24    15    16   ar
    25    16    17   ar
    26     5     6    1
    27     6     7    1
    28    24    25   ar
    29    25    26   ar
    30    26    27   ar
    31    27    28    1
    32    27    22   ar
    33     7     2    1
    34    17     8   ar
    35    17    11   ar
    36    30    33    1
@<TRIPOS>MOLECULE
*****
 33 36 0 0 0
SMALL
GASTEIGER

@<TRIPOS>ATOM
      1 C         140.6448  144.4560  161.7557 C.3     1  UNL1        0.0722
      2 N         140.6612  144.0084  163.1873 N.3     1  UNL1       -0.2727
      3 C         141.8838  143.3486  163.7529 C.3     1  UNL1        0.0725
      4 C         141.9002  142.9010  165.1845 C.3     1  UNL1        0.0234
      5 C         140.6939  143.1133  166.0505 C.3     1  UNL1        0.0464
      6 C         139.4714  143.7731  165.4849 C.3     1  UNL1        0.0234
      7 C         139.4550  144.2207  164.0533 C.3     1  UNL1        0.0725
      8 C         140.7103  142.6657  167.4821 C.ar    1  UNL1        0.1003
      9 N         140.0846  143.3874  168.6387 N.ar    1  UNL1       -0.0814
     10 O         140.3429  142.5856  169.8798 O.2     1  UNL1       -0.3536
     11 C         141.1282  141.3683  169.4903 C.ar    1  UNL1        0.1787
     12 C         141.6658  140.2213  170.2934 C.ar    1  UNL1        0.0698
     13 C         142.4304  139.1237  169.6147 C.ar    1  UNL1        0.1433
     14 F         142.9681  137.9766  170.4179 F       1  UNL1       -0.2041
     15 C         142.6575  139.1733  168.1328 C.ar    1  UNL1        0.0299
     16 C         142.1199  140.3204  167.3297 C.ar    1  UNL1        0.0067
     17 C         141.3552  141.4179  168.0084 C.ar    1  UNL1        0.0540
     18 C         140.8823  143.4631  160.6568 C.3     1  UNL1        0.0212
     19 C         139.8928  143.3331  159.5368 C.3     1  UNL1        0.0488
     20 C         138.5878  142.6304  159.7670 C.3     1  UNL1        0.2054
     21 O         138.5755  141.1961  160.2061 O.3     1  UNL1       -0.4755
     22 C         140.1125  139.8217  163.5970 C.ar    1  UNL1        0.0838
     23 C         139.9635  140.1625  162.1438 C.ar    1  UNL1        0.0437
     24 C         138.7245  140.8553  161.6593 C.ar    1  UNL1        0.1388
     25 C         137.6346  141.2074  162.6278 C.ar    1  UNL1        0.0392
     26 C         137.7836  140.8666  164.0809 C.ar    1  UNL1        0.0329
     27 C         139.0226  140.1738  164.5655 C.ar    1  UNL1        0.1446
     28 F         139.1716  139.8330  166.0187 F       1  UNL1       -0.2040
     29 C         143.9399  139.0259  164.2811 C.3     1  UNL1        0.1109
     30 N         142.7009  139.7187  163.7965 N.am    1  UNL1       -0.2991
     31 C         141.3516  139.1289  164.0817 C.2     1  UNL1        0.2482
     32 O         141.2412  137.8463  164.8516 O.2     1  UNL1       -0.2701
     33 H         142.7733  140.5605  163.2912 H       1  UNL1        0.1498
@<TRIPOS>BOND
     1    29    30    1
     2    30    31   am
     3    31    32    2
     4    31    22    1
     5    22    23   ar
     6    23    24   ar
     7    24    21    1
     8    21    20    1
     9    20    19    1
    10    19    18    1
    11    18     1    1
    12     1     2    1
    13     2     3    1
    14     3     4    1
    15     4     5    1
    16     5     8    1
    17     8     9   ar
    18     9    10   ar
    19    10    11   ar
    20    11    12   ar
    21    12    13   ar
    22    13    14    1
    23    13    15   ar
    24    15    16   ar
    25    16    17   ar
    26     5     6    1
    27     6     7    1
    28    24    25   ar
    29    25    26   ar
    30    26    27   ar
    31    27    28    1
    32    27    22   ar
    33     7     2    1
    34    17     8   ar
    35    17    11   ar
    36    30    33    1
