@<TRIPOS>MOLECULE
*****
 39 42 0 0 0
SMALL
GASTEIGER

@<TRIPOS>ATOM
      1 C         139.7176  138.6803  164.3303 C.2     1  UNL1        0.2293
      2 O         138.7601  137.5334  164.4632 O.2     1  UNL1       -0.2745
      3 N         139.4235  139.7956  163.3713 N.am    1  UNL1       -0.2790
      4 C         138.1718  139.7639  162.5452 C.3     1  UNL1        0.0971
      5 C         137.8777  140.8792  161.5863 C.3     1  UNL1        0.0650
      6 C         138.8353  142.0262  161.4534 C.3     1  UNL1        0.1693
      7 C         140.0869  142.0578  162.2794 C.3     1  UNL1        0.0650
      8 C         140.3810  140.9426  163.2384 C.3     1  UNL1        0.0971
      9 C         142.1884  137.9670  164.6996 C.3     1  UNL1        0.0143
     10 C         140.9692  138.7120  165.1564 C.3     1  UNL1        0.0989
     11 C         141.0017  139.4887  166.4392 C.ar    1  UNL1       -0.0137
     12 C         142.2896  139.6371  167.1937 C.ar    1  UNL1       -0.0007
     13 C         142.3221  140.4137  168.4766 C.ar    1  UNL1        0.0369
     14 C         141.0667  141.0420  169.0050 C.ar    1  UNL1        0.1468
     15 C         139.7787  140.8936  168.2504 C.ar    1  UNL1        0.0369
     16 C         139.7462  140.1170  166.9676 C.ar    1  UNL1       -0.0007
     17 O         141.0992  141.8187  170.2878 O.3     1  UNL1       -0.4045
     18 C         140.6924  143.2624  170.3010 C.3     1  UNL1        0.5753
     19 F         140.2856  144.7061  170.3142 F       1  UNL1       -0.1328
     20 F         142.0776  143.6565  169.8817 F       1  UNL1       -0.1328
     21 F         139.3072  142.8683  170.7204 F       1  UNL1       -0.1328
     22 O         138.5411  143.1415  160.4943 O.3     1  UNL1       -0.4789
     23 C         139.4502  143.3858  159.3266 C.ar    1  UNL1        0.1427
     24 C         139.3582  142.5144  158.1091 C.ar    1  UNL1        0.0371
     25 C         140.2674  142.7588  156.9413 C.ar    1  UNL1        0.0047
     26 C         141.2686  143.8746  156.9910 C.ar    1  UNL1        0.0195
     27 C         141.3607  144.7461  158.2085 C.ar    1  UNL1        0.0091
     28 C         140.4515  144.5017  159.3762 C.ar    1  UNL1        0.0871
     29 C         142.1777  144.1190  155.8233 C.ar    1  UNL1        0.1002
     30 C         141.9983  145.1736  154.7718 C.ar    1  UNL1        0.0965
     31 N         143.1356  145.0581  153.8006 N.ar    1  UNL1       -0.3059
     32 C         143.3525  145.9177  152.5906 C.3     1  UNL1        0.1321
     33 C         144.0180  143.9321  154.2519 C.ar    1  UNL1        0.1786
     34 N         143.4259  143.3517  155.5019 N.ar    1  UNL1       -0.2239
     35 C         140.5436  145.3731  160.5937 C.2     1  UNL1        0.2457
     36 N         141.7645  145.3200  161.4634 N.am    1  UNL1       -0.3252
     37 O         139.4147  146.2977  160.9413 O.2     1  UNL1       -0.2703
     38 H         142.5054  144.7131  161.2353 H       1  UNL1        0.1453
     39 H         141.8249  145.8919  162.2625 H       1  UNL1        0.1453
@<TRIPOS>BOND
     1    10     9    1
     2    10     1    1
     3     1     2    2
     4     1     3   am
     5     3     4    1
     6     4     5    1
     7     5     6    1
     8     6    22    1
     9    22    23    1
    10    23    24   ar
    11    24    25   ar
    12    25    26   ar
    13    26    29    1
    14    29    30   ar
    15    30    31   ar
    16    31    32    1
    17    31    33   ar
    18    33    34   ar
    19    26    27   ar
    20    27    28   ar
    21    28    35    1
    22    35    36   am
    23    35    37    2
    24     6     7    1
    25     7     8    1
    26    10    11    1
    27    11    12   ar
    28    12    13   ar
    29    13    14   ar
    30    14    17    1
    31    17    18    1
    32    18    19    1
    33    18    20    1
    34    18    21    1
    35    14    15   ar
    36    15    16   ar
    37     8     3    1
    38    16    11   ar
    39    28    23   ar
    40    34    29   ar
    41    36    38    1
    42    36    39    1
@<TRIPOS>MOLECULE
*****
 39 42 0 0 0
SMALL
GASTEIGER

@<TRIPOS>ATOM
      1 C         138.8980  142.6171  163.3493 C.2     1  UNL1        0.2293
      2 O         137.4628  142.4951  162.9305 O.2     1  UNL1       -0.2745
      3 N         139.9892  142.1514  162.4313 N.am    1  UNL1       -0.2790
      4 C         139.6452  141.5639  161.0948 C.3     1  UNL1        0.0971
      5 C         140.7364  141.0983  160.1770 C.3     1  UNL1        0.0650
      6 C         142.1716  141.2202  160.5957 C.3     1  UNL1        0.1693
      7 C         142.5156  141.8077  161.9322 C.3     1  UNL1        0.0650
      8 C         141.4244  142.2734  162.8501 C.3     1  UNL1        0.0971
      9 C         139.2639  144.6935  164.8674 C.3     1  UNL1        0.0143
     10 C         139.2420  143.2046  164.6858 C.3     1  UNL1        0.0989
     11 C         139.5642  142.3034  165.8408 C.ar    1  UNL1       -0.0137
     12 C         139.1190  140.8711  165.8214 C.ar    1  UNL1       -0.0007
     13 C         139.4411  139.9699  166.9764 C.ar    1  UNL1        0.0369
     14 C         140.2085  140.5009  168.1508 C.ar    1  UNL1        0.1468
     15 C         140.6537  141.9332  168.1702 C.ar    1  UNL1        0.0369
     16 C         140.3315  142.8345  167.0152 C.ar    1  UNL1       -0.0007
     17 O         140.5306  139.5997  169.3057 O.3     1  UNL1       -0.4045
     18 C         141.8565  139.7124  169.9979 C.3     1  UNL1        0.5753
     19 F         143.1825  139.8252  170.6902 F       1  UNL1       -0.1328
     20 F         142.5098  138.9754  168.8666 F       1  UNL1       -0.1328
     21 F         141.2033  140.4494  171.1293 F       1  UNL1       -0.1328
     22 O         143.2628  140.7546  159.6778 O.3     1  UNL1       -0.4789
     23 C         143.0913  139.4898  158.8898 C.ar    1  UNL1        0.1427
     24 C         142.9777  139.5468  157.3952 C.ar    1  UNL1        0.0371
     25 C         142.8062  138.2819  156.6073 C.ar    1  UNL1        0.0047
     26 C         142.7483  136.9601  157.3140 C.ar    1  UNL1        0.0195
     27 C         142.8619  136.9031  158.8086 C.ar    1  UNL1        0.0091
     28 C         143.0334  138.1679  159.5965 C.ar    1  UNL1        0.0871
     29 C         142.5767  135.6954  156.5260 C.ar    1  UNL1        0.1002
     30 C         143.5399  134.5463  156.4824 C.ar    1  UNL1        0.0965
     31 N         142.9704  133.4984  155.5728 N.ar    1  UNL1       -0.3059
     32 C         143.6047  132.1804  155.2401 C.3     1  UNL1        0.1321
     33 C         141.6552  133.9997  155.0542 C.ar    1  UNL1        0.1786
     34 N         141.4119  135.3576  155.6434 N.ar    1  UNL1       -0.2239
     35 C         143.1470  138.1108  161.0911 C.2     1  UNL1        0.2457
     36 N         144.4171  138.5402  161.7637 N.am    1  UNL1       -0.3252
     37 O         141.9904  137.6244  161.9132 O.2     1  UNL1       -0.2703
     38 H         145.1762  138.8594  161.2241 H       1  UNL1        0.1453
     39 H         144.4917  138.5028  162.7446 H       1  UNL1        0.1453
@<TRIPOS>BOND
     1    10     9    1
     2    10     1    1
     3     1     2    2
     4     1     3   am
     5     3     4    1
     6     4     5    1
     7     5     6    1
     8     6    22    1
     9    22    23    1
    10    23    24   ar
    11    24    25   ar
    12    25    26   ar
    13    26    29    1
    14    29    30   ar
    15    30    31   ar
    16    31    32    1
    17    31    33   ar
    18    33    34   ar
    19    26    27   ar
    20    27    28   ar
    21    28    35    1
    22    35    36   am
    23    35    37    2
    24     6     7    1
    25     7     8    1
    26    10    11    1
    27    11    12   ar
    28    12    13   ar
    29    13    14   ar
    30    14    17    1
    31    17    18    1
    32    18    19    1
    33    18    20    1
    34    18    21    1
    35    14    15   ar
    36    15    16   ar
    37     8     3    1
    38    16    11   ar
    39    28    23   ar
    40    34    29   ar
    41    36    38    1
    42    36    39    1
@<TRIPOS>MOLECULE
*****
 39 42 0 0 0
SMALL
GASTEIGER

@<TRIPOS>ATOM
      1 C         139.1838  138.7355  165.2016 C.2     1  UNL1        0.2293
      2 O         139.9892  137.5263  164.8286 O.2     1  UNL1       -0.2745
      3 N         138.8772  139.7800  164.1695 N.am    1  UNL1       -0.2790
      4 C         139.3760  139.6153  162.7646 C.3     1  UNL1        0.0971
      5 C         139.0695  140.6598  161.7326 C.3     1  UNL1        0.0650
      6 C         138.2640  141.8690  162.1056 C.3     1  UNL1        0.1693
      7 C         137.7652  142.0337  163.5106 C.3     1  UNL1        0.0650
      8 C         138.0718  140.9892  164.5425 C.3     1  UNL1        0.0971
      9 C         137.3679  138.3059  167.0094 C.3     1  UNL1        0.0143
     10 C         138.6850  138.9002  166.6066 C.3     1  UNL1        0.0989
     11 C         139.5032  139.6593  167.6088 C.ar    1  UNL1       -0.0137
     12 C         140.8752  140.1437  167.2443 C.ar    1  UNL1       -0.0007
     13 C         141.6933  140.9028  168.2465 C.ar    1  UNL1        0.0369
     14 C         141.1395  141.1773  169.6132 C.ar    1  UNL1        0.1468
     15 C         139.7675  140.6929  169.9778 C.ar    1  UNL1        0.0369
     16 C         138.9493  139.9338  168.9755 C.ar    1  UNL1       -0.0007
     17 O         141.9577  141.9364  170.6154 O.3     1  UNL1       -0.4045
     18 C         143.3552  142.3619  170.2748 C.3     1  UNL1        0.5753
     19 F         144.7527  142.7875  169.9342 F       1  UNL1       -0.1328
     20 F         143.7945  140.9278  170.2858 F       1  UNL1       -0.1328
     21 F         142.9158  143.7960  170.2639 F       1  UNL1       -0.1328
     22 O         137.9575  142.9135  161.0735 O.3     1  UNL1       -0.4789
     23 C         138.9145  143.1556  159.9442 C.ar    1  UNL1        0.1427
     24 C         138.7443  142.4226  158.6466 C.ar    1  UNL1        0.0371
     25 C         139.7015  142.6648  157.5173 C.ar    1  UNL1        0.0047
     26 C         140.8287  143.6399  157.6855 C.ar    1  UNL1        0.0195
     27 C         140.9989  144.3730  158.9831 C.ar    1  UNL1        0.0091
     28 C         140.0418  144.1308  160.1124 C.ar    1  UNL1        0.0871
     29 C         141.7857  143.8821  156.5562 C.ar    1  UNL1        0.1002
     30 C         142.9198  142.9864  156.1543 C.ar    1  UNL1        0.0965
     31 N         143.6118  143.6132  154.9802 N.ar    1  UNL1       -0.3059
     32 C         144.8013  143.0549  154.2568 C.3     1  UNL1        0.1321
     33 C         142.9052  144.8962  154.6565 C.ar    1  UNL1        0.1786
     34 N         141.7767  145.0624  155.6305 N.ar    1  UNL1       -0.2239
     35 C         140.2120  144.8639  161.4100 C.2     1  UNL1        0.2457
     36 N         139.0238  145.4869  162.0809 N.am    1  UNL1       -0.3252
     37 O         141.5704  144.9739  162.0367 O.2     1  UNL1       -0.2703
     38 H         138.1323  145.4147  161.6695 H       1  UNL1        0.1453
     39 H         139.1355  145.9680  162.9325 H       1  UNL1        0.1453
@<TRIPOS>BOND
     1    10     9    1
     2    10     1    1
     3     1     2    2
     4     1     3   am
     5     3     4    1
     6     4     5    1
     7     5     6    1
     8     6    22    1
     9    22    23    1
    10    23    24   ar
    11    24    25   ar
    12    25    26   ar
    13    26    29    1
    14    29    30   ar
    15    30    31   ar
    16    31    32    1
    17    31    33   ar
    18    33    34   ar
    19    26    27   ar
    20    27    28   ar
    21    28    35    1
    22    35    36   am
    23    35    37    2
    24     6     7    1
    25     7     8    1
    26    10    11    1
    27    11    12   ar
    28    12    13   ar
    29    13    14   ar
    30    14    17    1
    31    17    18    1
    32    18    19    1
    33    18    20    1
    34    18    21    1
    35    14    15   ar
    36    15    16   ar
    37     8     3    1
    38    16    11   ar
    39    28    23   ar
    40    34    29   ar
    41    36    38    1
    42    36    39    1
@<TRIPOS>MOLECULE
*****
 39 42 0 0 0
SMALL
GASTEIGER

@<TRIPOS>ATOM
      1 C         138.5713  140.1884  164.9922 C.2     1  UNL1        0.2293
      2 O         137.7616  141.4149  164.6922 O.2     1  UNL1       -0.2745
      3 N         139.3620  139.5266  163.9028 N.am    1  UNL1       -0.2790
      4 C         139.3430  140.0913  162.5133 C.3     1  UNL1        0.0971
      5 C         140.1336  139.4295  161.4239 C.3     1  UNL1        0.0650
      6 C         140.9433  138.2030  161.7240 C.3     1  UNL1        0.1693
      7 C         140.9623  137.6382  163.1135 C.3     1  UNL1        0.0650
      8 C         140.1717  138.3001  164.2028 C.3     1  UNL1        0.0971
      9 C         137.7605  138.4189  166.7131 C.3     1  UNL1        0.0143
     10 C         138.5904  139.6237  166.3817 C.3     1  UNL1        0.0989
     11 C         139.4392  140.2638  167.4399 C.ar    1  UNL1       -0.0137
     12 C         140.4898  141.2632  167.0558 C.ar    1  UNL1       -0.0007
     13 C         141.3386  141.9032  168.1139 C.ar    1  UNL1        0.0369
     14 C         141.1370  141.5440  169.5562 C.ar    1  UNL1        0.1468
     15 C         140.0864  140.5445  169.9404 C.ar    1  UNL1        0.0369
     16 C         139.2375  139.9044  168.8822 C.ar    1  UNL1       -0.0007
     17 O         141.9859  142.1840  170.6144 O.3     1  UNL1       -0.4045
     18 C         143.4375  142.4537  170.3499 C.3     1  UNL1        0.5753
     19 F         144.8892  142.7234  170.0854 F       1  UNL1       -0.1328
     20 F         143.6402  141.0113  169.9918 F       1  UNL1       -0.1328
     21 F         143.2348  143.8961  170.7080 F       1  UNL1       -0.1328
     22 O         141.7340  137.5411  160.6345 O.3     1  UNL1       -0.4789
     23 C         142.2110  138.3437  159.4605 C.ar    1  UNL1        0.1427
     24 C         141.4928  138.2508  158.1469 C.ar    1  UNL1        0.0371
     25 C         141.9699  139.0535  156.9729 C.ar    1  UNL1        0.0047
     26 C         143.1651  139.9490  157.1125 C.ar    1  UNL1        0.0195
     27 C         143.8833  140.0418  158.4262 C.ar    1  UNL1        0.0091
     28 C         143.4063  139.2393  159.6001 C.ar    1  UNL1        0.0871
     29 C         143.6422  140.7515  155.9386 C.ar    1  UNL1        0.1002
     30 C         145.0345  140.7554  155.3805 C.ar    1  UNL1        0.0965
     31 N         145.0635  141.6974  154.2136 N.ar    1  UNL1       -0.3059
     32 C         146.2573  142.0069  153.3597 C.3     1  UNL1        0.1321
     33 C         143.6890  142.2758  154.0504 C.ar    1  UNL1        0.1786
     34 N         142.8106  141.6911  155.1165 N.ar    1  UNL1       -0.2239
     35 C         144.1245  139.3322  160.9137 C.2     1  UNL1        0.2457
     36 N         144.5538  138.0826  161.6238 N.am    1  UNL1       -0.3252
     37 O         144.4133  140.6747  161.5173 O.2     1  UNL1       -0.2703
     38 H         144.3642  137.2015  161.2277 H       1  UNL1        0.1453
     39 H         145.0252  138.1436  162.4860 H       1  UNL1        0.1453
@<TRIPOS>BOND
     1    10     9    1
     2    10     1    1
     3     1     2    2
     4     1     3   am
     5     3     4    1
     6     4     5    1
     7     5     6    1
     8     6    22    1
     9    22    23    1
    10    23    24   ar
    11    24    25   ar
    12    25    26   ar
    13    26    29    1
    14    29    30   ar
    15    30    31   ar
    16    31    32    1
    17    31    33   ar
    18    33    34   ar
    19    26    27   ar
    20    27    28   ar
    21    28    35    1
    22    35    36   am
    23    35    37    2
    24     6     7    1
    25     7     8    1
    26    10    11    1
    27    11    12   ar
    28    12    13   ar
    29    13    14   ar
    30    14    17    1
    31    17    18    1
    32    18    19    1
    33    18    20    1
    34    18    21    1
    35    14    15   ar
    36    15    16   ar
    37     8     3    1
    38    16    11   ar
    39    28    23   ar
    40    34    29   ar
    41    36    38    1
    42    36    39    1
@<TRIPOS>MOLECULE
*****
 39 42 0 0 0
SMALL
GASTEIGER

@<TRIPOS>ATOM
      1 C         142.0371  144.3764  162.5503 C.2     1  UNL1        0.2293
      2 O         140.9515  145.3920  162.3506 O.2     1  UNL1       -0.2745
      3 N         142.4600  143.4968  161.4111 N.am    1  UNL1       -0.2790
      4 C         141.7972  143.6328  160.0725 C.3     1  UNL1        0.0971
      5 C         142.2200  142.7532  158.9334 C.3     1  UNL1        0.0650
      6 C         143.3057  141.7376  159.1330 C.3     1  UNL1        0.1693
      7 C         143.9685  141.6016  160.4717 C.3     1  UNL1        0.0650
      8 C         143.5457  142.4812  161.6108 C.3     1  UNL1        0.0971
      9 C         143.8542  145.1287  164.2481 C.3     1  UNL1        0.0143
     10 C         142.7000  144.2404  163.8889 C.3     1  UNL1        0.0989
     11 C         142.2087  143.2162  164.8685 C.ar    1  UNL1       -0.0137
     12 C         140.7586  142.8332  164.8893 C.ar    1  UNL1       -0.0007
     13 C         140.2673  141.8090  165.8689 C.ar    1  UNL1        0.0369
     14 C         141.2261  141.1678  166.8277 C.ar    1  UNL1        0.1468
     15 C         142.6763  141.5508  166.8070 C.ar    1  UNL1        0.0369
     16 C         143.1676  142.5750  165.8274 C.ar    1  UNL1       -0.0007
     17 O         140.7348  140.1436  167.8073 O.3     1  UNL1       -0.4045
     18 C         139.7175  140.5230  168.8422 C.3     1  UNL1        0.5753
     19 F         138.7001  140.9024  169.8772 F       1  UNL1       -0.1328
     20 F         140.7005  141.4724  169.4605 F       1  UNL1       -0.1328
     21 F         138.7345  139.5735  168.2240 F       1  UNL1       -0.1328
     22 O         143.7285  140.8580  157.9939 O.3     1  UNL1       -0.4789
     23 C         144.9494  141.2025  157.1934 C.ar    1  UNL1        0.1427
     24 C         145.8051  142.3674  157.5945 C.ar    1  UNL1        0.0371
     25 C         147.0260  142.7119  156.7939 C.ar    1  UNL1        0.0047
     26 C         147.3911  141.8916  155.5924 C.ar    1  UNL1        0.0195
     27 C         146.5353  140.7267  155.1913 C.ar    1  UNL1        0.0091
     28 C         145.3145  140.3822  155.9918 C.ar    1  UNL1        0.0871
     29 C         148.6119  142.2361  154.7919 C.ar    1  UNL1        0.1002
     30 C         149.9983  141.7155  155.0301 C.ar    1  UNL1        0.0965
     31 N         150.9039  142.3194  153.9981 N.ar    1  UNL1       -0.3059
     32 C         152.3776  142.0727  153.8654 C.3     1  UNL1        0.1321
     33 C         150.0772  143.2133  153.1219 C.ar    1  UNL1        0.1786
     34 N         148.6607  143.1618  153.6126 N.ar    1  UNL1       -0.2239
     35 C         144.4588  139.2173  155.5908 C.2     1  UNL1        0.2457
     36 N         143.0043  139.4242  155.2883 N.am    1  UNL1       -0.3252
     37 O         145.0577  137.8456  155.4922 O.2     1  UNL1       -0.2703
     38 H         142.6112  140.3245  155.3530 H       1  UNL1        0.1453
     39 H         142.4426  138.6597  155.0251 H       1  UNL1        0.1453
@<TRIPOS>BOND
     1    10     9    1
     2    10     1    1
     3     1     2    2
     4     1     3   am
     5     3     4    1
     6     4     5    1
     7     5     6    1
     8     6    22    1
     9    22    23    1
    10    23    24   ar
    11    24    25   ar
    12    25    26   ar
    13    26    29    1
    14    29    30   ar
    15    30    31   ar
    16    31    32    1
    17    31    33   ar
    18    33    34   ar
    19    26    27   ar
    20    27    28   ar
    21    28    35    1
    22    35    36   am
    23    35    37    2
    24     6     7    1
    25     7     8    1
    26    10    11    1
    27    11    12   ar
    28    12    13   ar
    29    13    14   ar
    30    14    17    1
    31    17    18    1
    32    18    19    1
    33    18    20    1
    34    18    21    1
    35    14    15   ar
    36    15    16   ar
    37     8     3    1
    38    16    11   ar
    39    28    23   ar
    40    34    29   ar
    41    36    38    1
    42    36    39    1
@<TRIPOS>MOLECULE
*****
 39 42 0 0 0
SMALL
GASTEIGER

@<TRIPOS>ATOM
      1 C         144.2946  142.3250  163.8936 C.2     1  UNL1        0.2293
      2 O         145.2472  141.2430  163.4791 O.2     1  UNL1       -0.2745
      3 N         143.4491  143.0146  162.8642 N.am    1  UNL1       -0.2790
      4 C         143.5563  142.6223  161.4204 C.3     1  UNL1        0.0971
      5 C         142.7108  143.3120  160.3911 C.3     1  UNL1        0.0650
      6 C         141.7582  144.3939  160.8055 C.3     1  UNL1        0.1693
      7 C         141.6510  144.7863  162.2493 C.3     1  UNL1        0.0650
      8 C         142.4964  144.0966  163.2786 C.3     1  UNL1        0.0971
      9 C         144.9423  143.9082  165.8490 C.3     1  UNL1        0.0143
     10 C         144.1873  142.7173  165.3374 C.3     1  UNL1        0.0989
     11 C         143.3252  141.9187  166.2695 C.ar    1  UNL1       -0.0137
     12 C         143.0499  142.4241  167.6547 C.ar    1  UNL1       -0.0007
     13 C         142.1877  141.6255  168.5869 C.ar    1  UNL1        0.0369
     14 C         141.6009  140.3216  168.1339 C.ar    1  UNL1        0.1468
     15 C         141.8761  139.8161  166.7487 C.ar    1  UNL1        0.0369
     16 C         142.7383  140.6147  165.8165 C.ar    1  UNL1       -0.0007
     17 O         140.7387  139.5230  169.0661 O.3     1  UNL1       -0.4045
     18 C         139.4875  140.1261  169.6323 C.3     1  UNL1        0.5753
     19 F         138.2362  140.7292  170.1986 F       1  UNL1       -0.1328
     20 F         138.9591  140.3336  168.2439 F       1  UNL1       -0.1328
     21 F         140.0158  139.9186  171.0207 F       1  UNL1       -0.1328
     22 O         140.9127  145.0836  159.7761 O.3     1  UNL1       -0.4789
     23 C         140.0013  144.2821  158.8948 C.ar    1  UNL1        0.1427
     24 C         139.2842  143.0861  159.4476 C.ar    1  UNL1        0.0371
     25 C         138.3727  142.2846  158.5662 C.ar    1  UNL1        0.0047
     26 C         138.1783  142.6790  157.1321 C.ar    1  UNL1        0.0195
     27 C         138.8953  143.8749  156.5794 C.ar    1  UNL1        0.0091
     28 C         139.8068  144.6765  157.4607 C.ar    1  UNL1        0.0871
     29 C         137.2669  141.8774  156.2508 C.ar    1  UNL1        0.1002
     30 C         137.1478  142.0013  154.7607 C.ar    1  UNL1        0.0965
     31 N         136.1218  141.0117  154.2938 N.ar    1  UNL1       -0.3059
     32 C         135.6872  140.7956  152.8745 C.3     1  UNL1        0.1321
     33 C         135.6067  140.2762  155.4954 C.ar    1  UNL1        0.1786
     34 N         136.3144  140.8112  156.7049 N.ar    1  UNL1       -0.2239
     35 C         140.5238  145.8724  156.9079 C.2     1  UNL1        0.2457
     36 N         141.9558  146.1247  157.2761 N.am    1  UNL1       -0.3252
     37 O         139.8088  146.8161  155.9869 O.2     1  UNL1       -0.2703
     38 H         142.4251  145.5054  157.8806 H       1  UNL1        0.1453
     39 H         142.4264  146.9097  156.9133 H       1  UNL1        0.1453
@<TRIPOS>BOND
     1    10     9    1
     2    10     1    1
     3     1     2    2
     4     1     3   am
     5     3     4    1
     6     4     5    1
     7     5     6    1
     8     6    22    1
     9    22    23    1
    10    23    24   ar
    11    24    25   ar
    12    25    26   ar
    13    26    29    1
    14    29    30   ar
    15    30    31   ar
    16    31    32    1
    17    31    33   ar
    18    33    34   ar
    19    26    27   ar
    20    27    28   ar
    21    28    35    1
    22    35    36   am
    23    35    37    2
    24     6     7    1
    25     7     8    1
    26    10    11    1
    27    11    12   ar
    28    12    13   ar
    29    13    14   ar
    30    14    17    1
    31    17    18    1
    32    18    19    1
    33    18    20    1
    34    18    21    1
    35    14    15   ar
    36    15    16   ar
    37     8     3    1
    38    16    11   ar
    39    28    23   ar
    40    34    29   ar
    41    36    38    1
    42    36    39    1
@<TRIPOS>MOLECULE
*****
 39 42 0 0 0
SMALL
GASTEIGER

@<TRIPOS>ATOM
      1 C         140.7333  138.1723  157.7098 C.2     1  UNL1        0.2293
      2 O         139.2709  137.9173  157.9251 O.2     1  UNL1       -0.2745
      3 N         141.5457  138.8320  158.7845 N.am    1  UNL1       -0.2790
      4 C         140.8957  139.2368  160.0743 C.3     1  UNL1        0.0971
      5 C         141.7081  139.8965  161.1488 C.3     1  UNL1        0.0650
      6 C         143.1705  140.1515  160.9336 C.3     1  UNL1        0.1693
      7 C         143.8205  139.7467  159.6438 C.3     1  UNL1        0.0650
      8 C         143.0081  139.0870  158.5693 C.3     1  UNL1        0.0971
      9 C         141.5301  138.7645  155.3089 C.3     1  UNL1        0.0143
     10 C         141.3833  137.7675  156.4201 C.3     1  UNL1        0.0989
     11 C         141.8866  136.3658  156.2413 C.ar    1  UNL1       -0.0137
     12 C         141.2280  135.4532  155.2498 C.ar    1  UNL1       -0.0007
     13 C         141.7313  134.0515  155.0711 C.ar    1  UNL1        0.0369
     14 C         142.8932  133.5624  155.8839 C.ar    1  UNL1        0.1468
     15 C         143.5519  134.4751  156.8756 C.ar    1  UNL1        0.0369
     16 C         143.0486  135.8768  157.0543 C.ar    1  UNL1       -0.0007
     17 O         143.3965  132.1607  155.7052 O.3     1  UNL1       -0.4045
     18 C         144.1374  131.4821  156.8190 C.3     1  UNL1        0.5753
     19 F         144.8783  130.8035  157.9329 F       1  UNL1       -0.1328
     20 F         145.4387  131.7812  156.1356 F       1  UNL1       -0.1328
     21 F         142.8361  131.1831  157.5024 F       1  UNL1       -0.1328
     22 O         143.9829  140.8112  162.0083 O.3     1  UNL1       -0.4789
     23 C         143.6290  140.6025  163.4509 C.ar    1  UNL1        0.1427
     24 C         143.7871  139.2470  164.0734 C.ar    1  UNL1        0.0371
     25 C         143.4331  139.0383  165.5160 C.ar    1  UNL1        0.0047
     26 C         142.9211  140.1851  166.3361 C.ar    1  UNL1        0.0195
     27 C         142.7630  141.5406  165.7136 C.ar    1  UNL1        0.0091
     28 C         143.1169  141.7494  164.2710 C.ar    1  UNL1        0.0871
     29 C         142.5671  139.9763  167.7787 C.ar    1  UNL1        0.1002
     30 C         141.6773  140.8573  168.6046 C.ar    1  UNL1        0.0965
     31 N         141.6011  140.2754  169.9850 N.ar    1  UNL1       -0.3059
     32 C         140.8193  140.8358  171.1361 C.3     1  UNL1        0.1321
     33 C         142.4439  139.0348  170.0123 C.ar    1  UNL1        0.1786
     34 N         143.0409  138.8500  168.6488 N.ar    1  UNL1       -0.2239
     35 C         142.9588  143.1049  163.6485 C.2     1  UNL1        0.2457
     36 N         142.0626  143.2841  162.4592 N.am    1  UNL1       -0.3252
     37 O         143.6970  144.2813  164.2155 O.2     1  UNL1       -0.2703
     38 H         141.5781  142.5120  162.0871 H       1  UNL1        0.1453
     39 H         141.9588  144.1738  162.0506 H       1  UNL1        0.1453
@<TRIPOS>BOND
     1    10     9    1
     2    10     1    1
     3     1     2    2
     4     1     3   am
     5     3     4    1
     6     4     5    1
     7     5     6    1
     8     6    22    1
     9    22    23    1
    10    23    24   ar
    11    24    25   ar
    12    25    26   ar
    13    26    29    1
    14    29    30   ar
    15    30    31   ar
    16    31    32    1
    17    31    33   ar
    18    33    34   ar
    19    26    27   ar
    20    27    28   ar
    21    28    35    1
    22    35    36   am
    23    35    37    2
    24     6     7    1
    25     7     8    1
    26    10    11    1
    27    11    12   ar
    28    12    13   ar
    29    13    14   ar
    30    14    17    1
    31    17    18    1
    32    18    19    1
    33    18    20    1
    34    18    21    1
    35    14    15   ar
    36    15    16   ar
    37     8     3    1
    38    16    11   ar
    39    28    23   ar
    40    34    29   ar
    41    36    38    1
    42    36    39    1
@<TRIPOS>MOLECULE
*****
 39 42 0 0 0
SMALL
GASTEIGER

@<TRIPOS>ATOM
      1 C         138.5913  139.8262  162.8787 C.2     1  UNL1        0.2293
      2 O         137.3616  140.6818  162.9542 O.2     1  UNL1       -0.2745
      3 N         139.2893  139.6306  161.5654 N.am    1  UNL1       -0.2790
      4 C         138.7576  140.2904  160.3278 C.3     1  UNL1        0.0971
      5 C         139.4556  140.0947  159.0146 C.3     1  UNL1        0.0650
      6 C         140.6853  139.2391  158.9391 C.3     1  UNL1        0.1693
      7 C         141.2171  138.5793  160.1767 C.3     1  UNL1        0.0650
      8 C         140.5191  138.7750  161.4899 C.3     1  UNL1        0.0971
      9 C         139.0201  137.6784  164.2763 C.3     1  UNL1        0.0143
     10 C         139.1231  139.1664  164.1163 C.3     1  UNL1        0.0989
     11 C         139.7578  139.9944  165.1941 C.ar    1  UNL1       -0.0137
     12 C         139.4653  139.7009  166.6357 C.ar    1  UNL1       -0.0007
     13 C         140.1001  140.5289  167.7134 C.ar    1  UNL1        0.0369
     14 C         141.0273  141.6503  167.3495 C.ar    1  UNL1        0.1468
     15 C         141.3199  141.9439  165.9079 C.ar    1  UNL1        0.0369
     16 C         140.6851  141.1159  164.8301 C.ar    1  UNL1       -0.0007
     17 O         141.6621  142.4783  168.4273 O.3     1  UNL1       -0.4045
     18 C         140.8028  143.2022  169.4211 C.3     1  UNL1        0.5753
     19 F         139.9436  143.9261  170.4150 F       1  UNL1       -0.1328
     20 F         139.9885  143.7755  168.2994 F       1  UNL1       -0.1328
     21 F         141.6171  142.6288  170.5427 F       1  UNL1       -0.1328
     22 O         141.3834  139.0434  157.6259 O.3     1  UNL1       -0.4789
     23 C         141.6241  137.6581  157.1036 C.ar    1  UNL1        0.1427
     24 C         142.8282  136.8854  157.5543 C.ar    1  UNL1        0.0371
     25 C         143.0690  135.5000  157.0320 C.ar    1  UNL1        0.0047
     26 C         142.1057  134.8873  156.0591 C.ar    1  UNL1        0.0195
     27 C         140.9016  135.6600  155.6084 C.ar    1  UNL1        0.0091
     28 C         140.6608  137.0453  156.1306 C.ar    1  UNL1        0.0871
     29 C         142.3465  133.5020  155.5368 C.ar    1  UNL1        0.1002
     30 C         143.6587  132.7753  155.5373 C.ar    1  UNL1        0.0965
     31 N         143.4406  131.4243  154.9232 N.ar    1  UNL1       -0.3059
     32 C         144.4859  130.3671  154.7241 C.3     1  UNL1        0.1321
     33 C         141.9935  131.3160  154.5431 C.ar    1  UNL1        0.1786
     34 N         141.3174  132.6001  154.9223 N.ar    1  UNL1       -0.2239
     35 C         139.4567  137.8180  155.6799 C.2     1  UNL1        0.2457
     36 N         139.5817  139.2756  155.3486 N.am    1  UNL1       -0.3252
     37 O         138.1275  137.1331  155.5606 O.2     1  UNL1       -0.2703
     38 H         140.4541  139.7251  155.4270 H       1  UNL1        0.1453
     39 H         138.7914  139.7827  155.0529 H       1  UNL1        0.1453
@<TRIPOS>BOND
     1    10     9    1
     2    10     1    1
     3     1     2    2
     4     1     3   am
     5     3     4    1
     6     4     5    1
     7     5     6    1
     8     6    22    1
     9    22    23    1
    10    23    24   ar
    11    24    25   ar
    12    25    26   ar
    13    26    29    1
    14    29    30   ar
    15    30    31   ar
    16    31    32    1
    17    31    33   ar
    18    33    34   ar
    19    26    27   ar
    20    27    28   ar
    21    28    35    1
    22    35    36   am
    23    35    37    2
    24     6     7    1
    25     7     8    1
    26    10    11    1
    27    11    12   ar
    28    12    13   ar
    29    13    14   ar
    30    14    17    1
    31    17    18    1
    32    18    19    1
    33    18    20    1
    34    18    21    1
    35    14    15   ar
    36    15    16   ar
    37     8     3    1
    38    16    11   ar
    39    28    23   ar
    40    34    29   ar
    41    36    38    1
    42    36    39    1
@<TRIPOS>MOLECULE
*****
 39 42 0 0 0
SMALL
GASTEIGER

@<TRIPOS>ATOM
      1 C         142.2988  138.5113  157.5356 C.2     1  UNL1        0.2293
      2 O         143.7359  138.9314  157.6264 O.2     1  UNL1       -0.2745
      3 N         141.3075  139.0057  158.5471 N.am    1  UNL1       -0.2790
      4 C         141.7533  139.9202  159.6493 C.3     1  UNL1        0.0971
      5 C         140.7621  140.4146  160.6607 C.3     1  UNL1        0.0650
      6 C         139.3250  139.9944  160.5699 C.3     1  UNL1        0.1693
      7 C         138.8792  139.0799  159.4677 C.3     1  UNL1        0.0650
      8 C         139.8704  138.5856  158.4563 C.3     1  UNL1        0.0971
      9 C         141.0789  138.1447  155.2712 C.3     1  UNL1        0.0143
     10 C         141.8529  137.5968  156.4334 C.3     1  UNL1        0.0989
     11 C         142.1811  136.1344  156.4934 C.ar    1  UNL1       -0.0137
     12 C         143.1946  135.6329  157.4789 C.ar    1  UNL1       -0.0007
     13 C         143.5228  134.1705  157.5389 C.ar    1  UNL1        0.0369
     14 C         142.8375  133.2095  156.6133 C.ar    1  UNL1        0.1468
     15 C         141.8239  133.7109  155.6277 C.ar    1  UNL1        0.0369
     16 C         141.4957  135.1733  155.5677 C.ar    1  UNL1       -0.0007
     17 O         143.1657  131.7471  156.6733 O.3     1  UNL1       -0.4045
     18 C         143.9650  131.1121  155.5743 C.3     1  UNL1        0.5753
     19 F         144.7644  130.4771  154.4752 F       1  UNL1       -0.1328
     20 F         142.7055  130.5540  154.9807 F       1  UNL1       -0.1328
     21 F         145.2244  131.6702  156.1678 F       1  UNL1       -0.1328
     22 O         138.3337  140.4888  161.5814 O.3     1  UNL1       -0.4789
     23 C         138.7009  140.5262  163.0352 C.ar    1  UNL1        0.1427
     24 C         138.7890  139.2507  163.8196 C.ar    1  UNL1        0.0371
     25 C         139.1562  139.2882  165.2735 C.ar    1  UNL1        0.0047
     26 C         139.4353  140.6011  165.9430 C.ar    1  UNL1        0.0195
     27 C         139.3473  141.8766  165.1586 C.ar    1  UNL1        0.0091
     28 C         138.9801  141.8392  163.7047 C.ar    1  UNL1        0.0871
     29 C         139.8025  140.6385  167.3968 C.ar    1  UNL1        0.1002
     30 C         140.8514  141.5118  168.0191 C.ar    1  UNL1        0.0965
     31 N         140.8825  141.2222  169.4905 N.ar    1  UNL1       -0.3059
     32 C         141.7848  141.8710  170.4979 C.3     1  UNL1        0.1321
     33 C         139.8527  140.1699  169.7777 C.ar    1  UNL1        0.1786
     34 N         139.1853  139.8092  168.4837 N.ar    1  UNL1       -0.2239
     35 C         138.8920  143.1148  162.9204 C.2     1  UNL1        0.2457
     36 N         137.7183  143.3619  162.0197 N.am    1  UNL1       -0.3252
     37 O         139.9778  144.1432  163.0366 O.2     1  UNL1       -0.2703
     38 H         137.0057  142.6869  161.9434 H       1  UNL1        0.1453
     39 H         137.6605  144.1991  161.5049 H       1  UNL1        0.1453
@<TRIPOS>BOND
     1    10     9    1
     2    10     1    1
     3     1     2    2
     4     1     3   am
     5     3     4    1
     6     4     5    1
     7     5     6    1
     8     6    22    1
     9    22    23    1
    10    23    24   ar
    11    24    25   ar
    12    25    26   ar
    13    26    29    1
    14    29    30   ar
    15    30    31   ar
    16    31    32    1
    17    31    33   ar
    18    33    34   ar
    19    26    27   ar
    20    27    28   ar
    21    28    35    1
    22    35    36   am
    23    35    37    2
    24     6     7    1
    25     7     8    1
    26    10    11    1
    27    11    12   ar
    28    12    13   ar
    29    13    14   ar
    30    14    17    1
    31    17    18    1
    32    18    19    1
    33    18    20    1
    34    18    21    1
    35    14    15   ar
    36    15    16   ar
    37     8     3    1
    38    16    11   ar
    39    28    23   ar
    40    34    29   ar
    41    36    38    1
    42    36    39    1
