@<TRIPOS>MOLECULE
*****
 33 36 0 0 0
SMALL
GASTEIGER

@<TRIPOS>ATOM
      1 N         138.6617  139.8299  164.0277 N.3     1  UNL1       -0.2647
      2 C         139.9364  139.5115  163.3041 C.3     1  UNL1        0.1037
      3 C         140.2514  140.1919  162.0050 C.3     1  UNL1        0.1470
      4 C         140.5664  140.8723  160.7058 C.3     1  UNL1        0.1035
      5 N         139.6066  141.8712  160.1302 N.3     1  UNL1       -0.2669
      6 C         138.3318  142.1896  160.8539 C.3     1  UNL1        0.1035
      7 C         138.0169  141.5092  162.1531 C.3     1  UNL1        0.1470
      8 C         137.7019  140.8287  163.4522 C.3     1  UNL1        0.1037
      9 O         139.2916  141.1907  161.4295 O.3     1  UNL1       -0.3530
     10 C         138.3467  139.1495  165.3269 C.3     1  UNL1        0.0993
     11 C         139.6802  140.9888  169.2113 C.ar    1  UNL1        0.0684
     12 C         138.7410  139.8193  169.2187 C.ar    1  UNL1        0.0100
     13 C         138.2964  139.2061  167.9239 C.ar    1  UNL1       -0.0022
     14 C         138.7912  139.7626  166.6217 C.ar    1  UNL1       -0.0061
     15 C         139.7304  140.9321  166.6144 C.ar    1  UNL1       -0.0022
     16 C         140.1749  141.5452  167.9092 C.ar    1  UNL1        0.0100
     17 N         140.5692  142.2150  171.8010 N.1     1  UNL1       -0.1908
     18 C         140.1247  141.6019  170.5061 C.1     1  UNL1        0.1004
     19 C         139.9216  142.5516  158.8311 C.3     1  UNL1        0.0999
     20 C         140.1179  144.0382  158.7913 C.3     1  UNL1        0.1896
     21 S         140.9402  144.7146  159.8479 S.O2    1  UNL1        0.0554
     22 O         139.7556  145.5490  160.2356 O.2     1  UNL1       -0.1544
     23 O         142.1248  143.8802  159.4601 O.2     1  UNL1       -0.1544
     24 N         141.7625  145.3910  160.9044 N.pl3   1  UNL1       -0.2187
     25 H         142.0878  146.3093  160.7622 H       1  UNL1        0.1734
     26 C         142.0891  144.6684  162.1776 C.ar    1  UNL1        0.0645
     27 C         141.0139  143.9290  162.9174 C.ar    1  UNL1        0.0165
     28 C         141.3405  143.2064  164.1906 C.ar    1  UNL1        0.0116
     29 C         142.7424  143.2232  164.7241 C.ar    1  UNL1        0.0685
     30 C         143.8175  143.9626  163.9843 C.ar    1  UNL1        0.0116
     31 C         143.4909  144.6852  162.7111 C.ar    1  UNL1        0.0165
     32 C         143.0690  142.5006  165.9973 C.1     1  UNL1        0.1004
     33 N         143.3957  141.7780  167.2706 N.1     1  UNL1       -0.1908
@<TRIPOS>BOND
     1    17    18    3
     2    18    11    1
     3    11    12   ar
     4    12    13   ar
     5    13    14   ar
     6    14    10    1
     7    10     1    1
     8     1     2    1
     9     2     3    1
    10     3     4    1
    11     4     5    1
    12     5    19    1
    13    19    20    1
    14    20    21    1
    15    21    22    2
    16    21    23    2
    17    21    24    1
    18    24    26    1
    19    26    27   ar
    20    27    28   ar
    21    28    29   ar
    22    29    32    1
    23    32    33    3
    24    29    30   ar
    25    30    31   ar
    26     5     6    1
    27     6     7    1
    28     7     8    1
    29     7     9    1
    30    14    15   ar
    31    15    16   ar
    32    16    11   ar
    33     8     1    1
    34     9     3    1
    35    31    26   ar
    36    24    25    1
@<TRIPOS>MOLECULE
*****
 33 36 0 0 0
SMALL
GASTEIGER

@<TRIPOS>ATOM
      1 N         138.5914  139.2077  165.8339 N.3     1  UNL1       -0.2647
      2 C         138.9942  138.0308  164.9957 C.3     1  UNL1        0.1037
      3 C         138.8942  138.1054  163.5009 C.3     1  UNL1        0.1470
      4 C         138.7942  138.1799  162.0060 C.3     1  UNL1        0.1035
      5 N         138.2914  139.4313  161.3495 N.3     1  UNL1       -0.2669
      6 C         137.8886  140.6082  162.1877 C.3     1  UNL1        0.1035
      7 C         137.9886  140.5337  163.6825 C.3     1  UNL1        0.1470
      8 C         138.0886  140.4591  165.1773 C.3     1  UNL1        0.1037
      9 O         138.3914  139.3568  162.8443 O.3     1  UNL1       -0.3530
     10 C         138.6913  139.1332  167.3287 C.3     1  UNL1        0.0993
     11 C         141.4299  141.9344  169.5431 C.ar    1  UNL1        0.0684
     12 C         141.8168  141.4234  168.1870 C.ar    1  UNL1        0.0100
     13 C         140.9040  140.4896  167.4488 C.ar    1  UNL1       -0.0022
     14 C         139.6042  140.0669  168.0668 C.ar    1  UNL1       -0.0061
     15 C         139.2173  140.5780  169.4230 C.ar    1  UNL1       -0.0022
     16 C         140.1301  141.5117  170.1611 C.ar    1  UNL1        0.0100
     17 N         143.2556  143.8019  171.0193 N.1     1  UNL1       -0.1908
     18 C         142.3428  142.8681  170.2812 C.1     1  UNL1        0.1004
     19 C         138.1915  139.5059  159.8547 C.3     1  UNL1        0.0999
     20 C         139.1431  140.3700  159.0815 C.3     1  UNL1        0.1896
     21 S         140.5435  140.5743  159.5784 S.O2    1  UNL1        0.0554
     22 O         140.2281  142.0101  159.8769 O.2     1  UNL1       -0.1544
     23 O         140.8589  139.1386  159.2800 O.2     1  UNL1       -0.1544
     24 N         141.9439  140.7787  160.0754 N.pl3   1  UNL1       -0.2187
     25 H         142.5965  141.2656  159.5220 H       1  UNL1        0.1734
     26 C         142.3501  140.2411  161.4156 C.ar    1  UNL1        0.0645
     27 C         141.5760  140.6224  162.6426 C.ar    1  UNL1        0.0165
     28 C         141.9822  140.0848  163.9828 C.ar    1  UNL1        0.0116
     29 C         143.1625  139.1660  164.0959 C.ar    1  UNL1        0.0685
     30 C         143.9365  138.7848  162.8689 C.ar    1  UNL1        0.0116
     31 C         143.5304  139.3223  161.5288 C.ar    1  UNL1        0.0165
     32 C         143.5687  138.6284  165.4361 C.1     1  UNL1        0.1004
     33 N         143.9749  138.0909  166.7762 N.1     1  UNL1       -0.1908
@<TRIPOS>BOND
     1    17    18    3
     2    18    11    1
     3    11    12   ar
     4    12    13   ar
     5    13    14   ar
     6    14    10    1
     7    10     1    1
     8     1     2    1
     9     2     3    1
    10     3     4    1
    11     4     5    1
    12     5    19    1
    13    19    20    1
    14    20    21    1
    15    21    22    2
    16    21    23    2
    17    21    24    1
    18    24    26    1
    19    26    27   ar
    20    27    28   ar
    21    28    29   ar
    22    29    32    1
    23    32    33    3
    24    29    30   ar
    25    30    31   ar
    26     5     6    1
    27     6     7    1
    28     7     8    1
    29     7     9    1
    30    14    15   ar
    31    15    16   ar
    32    16    11   ar
    33     8     1    1
    34     9     3    1
    35    31    26   ar
    36    24    25    1
@<TRIPOS>MOLECULE
*****
 33 36 0 0 0
SMALL
GASTEIGER

@<TRIPOS>ATOM
      1 N         142.9781  138.6380  165.6162 N.3     1  UNL1       -0.2647
      2 C         144.1232  139.0961  164.7626 C.3     1  UNL1        0.1037
      3 C         144.0582  138.9374  163.2724 C.3     1  UNL1        0.1470
      4 C         143.9933  138.7788  161.7822 C.3     1  UNL1        0.1035
      5 N         142.7831  138.1621  161.1457 N.3     1  UNL1       -0.2669
      6 C         141.6379  137.7040  161.9994 C.3     1  UNL1        0.1035
      7 C         141.7029  137.8627  163.4895 C.3     1  UNL1        0.1470
      8 C         141.7679  138.0213  164.9797 C.3     1  UNL1        0.1037
      9 O         142.8481  138.3207  162.6359 O.3     1  UNL1       -0.3530
     10 C         143.0430  138.7966  167.1064 C.3     1  UNL1        0.0993
     11 C         141.2068  142.4069  169.0670 C.ar    1  UNL1        0.0684
     12 C         141.0200  141.0478  169.6734 C.ar    1  UNL1        0.0100
     13 C         141.6321  139.8443  169.0199 C.ar    1  UNL1       -0.0022
     14 C         142.4310  140.0000  167.7599 C.ar    1  UNL1       -0.0061
     15 C         142.6178  141.3592  167.1535 C.ar    1  UNL1       -0.0022
     16 C         142.0057  142.5627  167.8070 C.ar    1  UNL1        0.0100
     17 N         139.9827  144.8139  170.3740 N.1     1  UNL1       -0.1908
     18 C         140.5948  143.6104  169.7205 C.1     1  UNL1        0.1004
     19 C         142.7181  138.0035  159.6555 C.3     1  UNL1        0.0999
     20 C         141.9675  139.0035  158.8268 C.3     1  UNL1        0.1896
     21 S         141.8221  140.4171  159.3068 S.O2    1  UNL1        0.0554
     22 O         140.4146  140.1266  159.7362 O.2     1  UNL1       -0.1544
     23 O         143.2297  140.7077  158.8774 O.2     1  UNL1       -0.1544
     24 N         141.6768  141.8308  159.7867 N.pl3   1  UNL1       -0.2187
     25 H         141.1317  142.4709  159.2745 H       1  UNL1        0.1734
     26 C         142.3618  142.2691  161.0471 C.ar    1  UNL1        0.0645
     27 C         141.8312  141.8316  162.3803 C.ar    1  UNL1        0.0165
     28 C         142.5163  142.2699  163.6406 C.ar    1  UNL1        0.0116
     29 C         143.7319  143.1458  163.5679 C.ar    1  UNL1        0.0685
     30 C         144.2624  143.5833  162.2348 C.ar    1  UNL1        0.0116
     31 C         143.5773  143.1450  160.9745 C.ar    1  UNL1        0.0165
     32 C         144.4169  143.5841  164.8283 C.1     1  UNL1        0.1004
     33 N         145.1020  144.0225  166.0887 N.1     1  UNL1       -0.1908
@<TRIPOS>BOND
     1    17    18    3
     2    18    11    1
     3    11    12   ar
     4    12    13   ar
     5    13    14   ar
     6    14    10    1
     7    10     1    1
     8     1     2    1
     9     2     3    1
    10     3     4    1
    11     4     5    1
    12     5    19    1
    13    19    20    1
    14    20    21    1
    15    21    22    2
    16    21    23    2
    17    21    24    1
    18    24    26    1
    19    26    27   ar
    20    27    28   ar
    21    28    29   ar
    22    29    32    1
    23    32    33    3
    24    29    30   ar
    25    30    31   ar
    26     5     6    1
    27     6     7    1
    28     7     8    1
    29     7     9    1
    30    14    15   ar
    31    15    16   ar
    32    16    11   ar
    33     8     1    1
    34     9     3    1
    35    31    26   ar
    36    24    25    1
@<TRIPOS>MOLECULE
*****
 33 36 0 0 0
SMALL
GASTEIGER

@<TRIPOS>ATOM
      1 N         143.2399  140.3660  164.1135 N.3     1  UNL1       -0.2647
      2 C         142.1097  139.8623  163.2656 C.3     1  UNL1        0.1037
      3 C         141.7640  140.5614  161.9844 C.3     1  UNL1        0.1470
      4 C         141.4182  141.2605  160.7030 C.3     1  UNL1        0.1035
      5 N         142.2027  142.4633  160.2696 N.3     1  UNL1       -0.2669
      6 C         143.3330  142.9669  161.1175 C.3     1  UNL1        0.1035
      7 C         143.6787  142.2678  162.3988 C.3     1  UNL1        0.1470
      8 C         144.0244  141.5688  163.6800 C.3     1  UNL1        0.1037
      9 O         142.5485  141.7642  161.5509 O.3     1  UNL1       -0.3530
     10 C         143.5857  139.6669  165.3948 C.3     1  UNL1        0.0993
     11 C         141.8585  141.1200  169.2878 C.ar    1  UNL1        0.0684
     12 C         142.1425  142.0943  168.1833 C.ar    1  UNL1        0.0100
     13 C         142.7183  141.6099  166.8855 C.ar    1  UNL1       -0.0022
     14 C         143.0099  140.1512  166.6924 C.ar    1  UNL1       -0.0061
     15 C         142.7259  139.1770  167.7971 C.ar    1  UNL1       -0.0022
     16 C         142.1501  139.6613  169.0947 C.ar    1  UNL1        0.0100
     17 N         140.7070  142.0888  171.8831 N.1     1  UNL1       -0.1908
     18 C         141.2828  141.6044  170.5854 C.1     1  UNL1        0.1004
     19 C         141.8570  143.1623  158.9883 C.3     1  UNL1        0.0999
     20 C         140.9142  144.3290  159.0012 C.3     1  UNL1        0.1896
     21 S         140.0105  144.5500  160.1778 S.O2    1  UNL1        0.0554
     22 O         139.0506  143.5353  159.6312 O.2     1  UNL1       -0.1544
     23 O         140.9704  145.5647  160.7244 O.2     1  UNL1       -0.1544
     24 N         139.1068  144.7711  161.3544 N.pl3   1  UNL1       -0.2187
     25 H         138.5038  145.5491  161.3726 H       1  UNL1        0.1734
     26 C         139.1219  143.8068  162.5033 C.ar    1  UNL1        0.0645
     27 C         137.9492  142.9013  162.7379 C.ar    1  UNL1        0.0165
     28 C         137.9643  141.9370  163.8868 C.ar    1  UNL1        0.0116
     29 C         139.1521  141.8782  164.8010 C.ar    1  UNL1        0.0685
     30 C         140.3247  142.7836  164.5663 C.ar    1  UNL1        0.0116
     31 C         140.3096  143.7479  163.4175 C.ar    1  UNL1        0.0165
     32 C         139.1672  140.9139  165.9499 C.1     1  UNL1        0.1004
     33 N         139.1823  139.9496  167.0987 N.1     1  UNL1       -0.1908
@<TRIPOS>BOND
     1    17    18    3
     2    18    11    1
     3    11    12   ar
     4    12    13   ar
     5    13    14   ar
     6    14    10    1
     7    10     1    1
     8     1     2    1
     9     2     3    1
    10     3     4    1
    11     4     5    1
    12     5    19    1
    13    19    20    1
    14    20    21    1
    15    21    22    2
    16    21    23    2
    17    21    24    1
    18    24    26    1
    19    26    27   ar
    20    27    28   ar
    21    28    29   ar
    22    29    32    1
    23    32    33    3
    24    29    30   ar
    25    30    31   ar
    26     5     6    1
    27     6     7    1
    28     7     8    1
    29     7     9    1
    30    14    15   ar
    31    15    16   ar
    32    16    11   ar
    33     8     1    1
    34     9     3    1
    35    31    26   ar
    36    24    25    1
@<TRIPOS>MOLECULE
*****
 33 36 0 0 0
SMALL
GASTEIGER

@<TRIPOS>ATOM
      1 N         138.7853  139.5095  163.8832 N.3     1  UNL1       -0.2647
      2 C         137.7895  140.3653  163.1580 C.3     1  UNL1        0.1037
      3 C         137.9679  140.6482  161.6957 C.3     1  UNL1        0.1470
      4 C         138.1462  140.9311  160.2334 C.3     1  UNL1        0.1035
      5 N         139.3203  140.3580  159.4964 N.3     1  UNL1       -0.2669
      6 C         140.3160  139.5021  160.2217 C.3     1  UNL1        0.1035
      7 C         140.1377  139.2193  161.6839 C.3     1  UNL1        0.1470
      8 C         139.9594  138.9365  163.1461 C.3     1  UNL1        0.1037
      9 O         139.1420  140.0752  160.9587 O.3     1  UNL1       -0.3530
     10 C         138.6070  139.2266  165.3455 C.3     1  UNL1        0.0993
     11 C         140.3978  141.9954  168.4076 C.ar    1  UNL1        0.0684
     12 C         140.4144  142.3715  166.9556 C.ar    1  UNL1        0.0100
     13 C         139.8174  141.4486  165.9349 C.ar    1  UNL1       -0.0022
     14 C         139.2039  140.1495  166.3661 C.ar    1  UNL1       -0.0061
     15 C         139.1874  139.7734  167.8182 C.ar    1  UNL1       -0.0022
     16 C         139.7843  140.6963  168.8388 C.ar    1  UNL1        0.0100
     17 N         141.5917  143.8412  170.4490 N.1     1  UNL1       -0.1908
     18 C         140.9948  142.9183  169.4283 C.1     1  UNL1        0.1004
     19 C         139.4986  140.6409  158.0342 C.3     1  UNL1        0.0999
     20 C         140.6521  141.4785  157.5675 C.3     1  UNL1        0.1896
     21 S         141.0655  142.6890  158.3511 S.O2    1  UNL1        0.0554
     22 O         139.7476  143.3368  158.0454 O.2     1  UNL1       -0.1544
     23 O         142.3833  142.0411  158.6567 O.2     1  UNL1       -0.1544
     24 N         141.4788  143.8994  159.1346 N.pl3   1  UNL1       -0.2187
     25 H         142.1495  144.5188  158.7663 H       1  UNL1        0.1734
     26 C         140.8701  144.1661  160.4794 C.ar    1  UNL1        0.0645
     27 C         140.8322  143.0807  161.5141 C.ar    1  UNL1        0.0165
     28 C         140.2236  143.3475  162.8589 C.ar    1  UNL1        0.0116
     29 C         139.6528  144.6996  163.1689 C.ar    1  UNL1        0.0685
     30 C         139.6906  145.7849  162.1342 C.ar    1  UNL1        0.0116
     31 C         140.2993  145.5181  160.7894 C.ar    1  UNL1        0.0165
     32 C         139.0441  144.9663  164.5136 C.1     1  UNL1        0.1004
     33 N         138.4354  145.2331  165.8584 N.1     1  UNL1       -0.1908
@<TRIPOS>BOND
     1    17    18    3
     2    18    11    1
     3    11    12   ar
     4    12    13   ar
     5    13    14   ar
     6    14    10    1
     7    10     1    1
     8     1     2    1
     9     2     3    1
    10     3     4    1
    11     4     5    1
    12     5    19    1
    13    19    20    1
    14    20    21    1
    15    21    22    2
    16    21    23    2
    17    21    24    1
    18    24    26    1
    19    26    27   ar
    20    27    28   ar
    21    28    29   ar
    22    29    32    1
    23    32    33    3
    24    29    30   ar
    25    30    31   ar
    26     5     6    1
    27     6     7    1
    28     7     8    1
    29     7     9    1
    30    14    15   ar
    31    15    16   ar
    32    16    11   ar
    33     8     1    1
    34     9     3    1
    35    31    26   ar
    36    24    25    1
@<TRIPOS>MOLECULE
*****
 33 36 0 0 0
SMALL
GASTEIGER

@<TRIPOS>ATOM
      1 N         142.1107  139.2813  164.4516 N.3     1  UNL1       -0.2647
      2 C         143.5170  139.6202  164.0552 C.3     1  UNL1        0.1037
      3 C         143.8502  139.8715  162.6144 C.3     1  UNL1        0.1470
      4 C         144.1835  140.1229  161.1736 C.3     1  UNL1        0.1035
      5 N         143.1103  140.0354  160.1293 N.3     1  UNL1       -0.2669
      6 C         141.7039  139.6965  160.5258 C.3     1  UNL1        0.1035
      7 C         141.3707  139.4451  161.9665 C.3     1  UNL1        0.1470
      8 C         141.0375  139.1938  163.4073 C.3     1  UNL1        0.1037
      9 O         142.7770  139.7840  161.5701 O.3     1  UNL1       -0.3530
     10 C         141.7774  139.0299  165.8924 C.3     1  UNL1        0.0993
     11 C         140.7282  142.4732  168.5929 C.ar    1  UNL1        0.0684
     12 C         141.0721  141.1367  169.1808 C.ar    1  UNL1        0.0100
     13 C         141.4218  139.9889  168.2806 C.ar    1  UNL1       -0.0022
     14 C         141.4277  140.1776  166.7926 C.ar    1  UNL1       -0.0061
     15 C         141.0837  141.5142  166.2047 C.ar    1  UNL1       -0.0022
     16 C         140.7340  142.6619  167.1049 C.ar    1  UNL1        0.0100
     17 N         140.0287  144.7687  170.3934 N.1     1  UNL1       -0.1908
     18 C         140.3784  143.6209  169.4931 C.1     1  UNL1        0.1004
     19 C         143.4435  140.2867  158.6886 C.3     1  UNL1        0.0999
     20 C         142.7984  141.4266  157.9574 C.3     1  UNL1        0.1896
     21 S         142.6941  142.7732  158.6099 S.O2    1  UNL1        0.0554
     22 O         144.1837  142.8045  158.7832 O.2     1  UNL1       -0.1544
     23 O         141.2045  142.7419  158.4365 O.2     1  UNL1       -0.1544
     24 N         142.5898  144.1197  159.2624 N.pl3   1  UNL1       -0.2187
     25 H         143.0539  144.8942  158.8699 H       1  UNL1        0.1734
     26 C         141.7785  144.2864  160.5130 C.ar    1  UNL1        0.0645
     27 C         141.9855  143.3554  161.6709 C.ar    1  UNL1        0.0165
     28 C         141.1742  143.5220  162.9215 C.ar    1  UNL1        0.0116
     29 C         140.1559  144.6196  163.0142 C.ar    1  UNL1        0.0685
     30 C         139.9490  145.5505  161.8564 C.ar    1  UNL1        0.0116
     31 C         140.7603  145.3839  160.6058 C.ar    1  UNL1        0.0165
     32 C         139.3446  144.7862  164.2648 C.1     1  UNL1        0.1004
     33 N         138.5333  144.9529  165.5155 N.1     1  UNL1       -0.1908
@<TRIPOS>BOND
     1    17    18    3
     2    18    11    1
     3    11    12   ar
     4    12    13   ar
     5    13    14   ar
     6    14    10    1
     7    10     1    1
     8     1     2    1
     9     2     3    1
    10     3     4    1
    11     4     5    1
    12     5    19    1
    13    19    20    1
    14    20    21    1
    15    21    22    2
    16    21    23    2
    17    21    24    1
    18    24    26    1
    19    26    27   ar
    20    27    28   ar
    21    28    29   ar
    22    29    32    1
    23    32    33    3
    24    29    30   ar
    25    30    31   ar
    26     5     6    1
    27     6     7    1
    28     7     8    1
    29     7     9    1
    30    14    15   ar
    31    15    16   ar
    32    16    11   ar
    33     8     1    1
    34     9     3    1
    35    31    26   ar
    36    24    25    1
@<TRIPOS>MOLECULE
*****
 33 36 0 0 0
SMALL
GASTEIGER

@<TRIPOS>ATOM
      1 N         139.0686  139.1118  164.2429 N.3     1  UNL1       -0.2647
      2 C         138.4204  139.7536  163.0522 C.3     1  UNL1        0.1037
      3 C         139.0044  139.5584  161.6844 C.3     1  UNL1        0.1470
      4 C         139.5883  139.3631  160.3165 C.3     1  UNL1        0.1035
      5 N         140.8203  138.5261  160.1395 N.3     1  UNL1       -0.2669
      6 C         141.4685  137.8843  161.3304 C.3     1  UNL1        0.1035
      7 C         140.8846  138.0795  162.6982 C.3     1  UNL1        0.1470
      8 C         140.3007  138.2748  164.0659 C.3     1  UNL1        0.1037
      9 O         140.2364  138.7213  161.5074 O.3     1  UNL1       -0.3530
     10 C         138.4847  139.3071  165.6108 C.3     1  UNL1        0.0993
     11 C         140.5390  142.0036  168.5703 C.ar    1  UNL1        0.0684
     12 C         139.9667  140.6926  169.0217 C.ar    1  UNL1        0.0100
     13 C         139.2819  139.7937  168.0352 C.ar    1  UNL1       -0.0022
     14 C         139.1694  140.2059  166.5973 C.ar    1  UNL1       -0.0061
     15 C         139.7418  141.5169  166.1459 C.ar    1  UNL1       -0.0022
     16 C         140.4266  142.4157  167.1324 C.ar    1  UNL1        0.0100
     17 N         141.9086  143.8012  170.5434 N.1     1  UNL1       -0.1908
     18 C         141.2238  142.9024  169.5568 C.1     1  UNL1        0.1004
     19 C         141.4043  138.3308  158.7717 C.3     1  UNL1        0.0999
     20 C         142.7625  138.8805  158.4506 C.3     1  UNL1        0.1896
     21 S         143.2171  140.1674  159.0727 S.O2    1  UNL1        0.0554
     22 O         142.1683  140.9113  158.3002 O.2     1  UNL1       -0.1544
     23 O         144.2658  139.4236  159.8452 O.2     1  UNL1       -0.1544
     24 N         143.6716  141.4544  159.6948 N.pl3   1  UNL1       -0.2187
     25 H         144.5431  141.8399  159.4475 H       1  UNL1        0.1734
     26 C         142.7984  142.1541  160.6938 C.ar    1  UNL1        0.0645
     27 C         142.3197  141.4234  161.9133 C.ar    1  UNL1        0.0165
     28 C         141.4465  142.1231  162.9123 C.ar    1  UNL1        0.0116
     29 C         141.0519  143.5534  162.6917 C.ar    1  UNL1        0.0685
     30 C         141.5306  144.2840  161.4723 C.ar    1  UNL1        0.0116
     31 C         142.4038  143.5843  160.4733 C.ar    1  UNL1        0.0165
     32 C         140.1787  144.2531  163.6907 C.1     1  UNL1        0.1004
     33 N         139.3055  144.9528  164.6897 N.1     1  UNL1       -0.1908
@<TRIPOS>BOND
     1    17    18    3
     2    18    11    1
     3    11    12   ar
     4    12    13   ar
     5    13    14   ar
     6    14    10    1
     7    10     1    1
     8     1     2    1
     9     2     3    1
    10     3     4    1
    11     4     5    1
    12     5    19    1
    13    19    20    1
    14    20    21    1
    15    21    22    2
    16    21    23    2
    17    21    24    1
    18    24    26    1
    19    26    27   ar
    20    27    28   ar
    21    28    29   ar
    22    29    32    1
    23    32    33    3
    24    29    30   ar
    25    30    31   ar
    26     5     6    1
    27     6     7    1
    28     7     8    1
    29     7     9    1
    30    14    15   ar
    31    15    16   ar
    32    16    11   ar
    33     8     1    1
    34     9     3    1
    35    31    26   ar
    36    24    25    1
@<TRIPOS>MOLECULE
*****
 33 36 0 0 0
SMALL
GASTEIGER

@<TRIPOS>ATOM
      1 N         143.3149  138.7708  164.5790 N.3     1  UNL1       -0.2647
      2 C         144.2929  139.4457  163.6636 C.3     1  UNL1        0.1037
      3 C         144.0909  139.3908  162.1783 C.3     1  UNL1        0.1470
      4 C         143.8889  139.3359  160.6930 C.3     1  UNL1        0.1035
      5 N         142.7089  138.6061  160.1230 N.3     1  UNL1       -0.2669
      6 C         141.7308  137.9312  161.0384 C.3     1  UNL1        0.1035
      7 C         141.9328  137.9861  162.5237 C.3     1  UNL1        0.1470
      8 C         142.1348  138.0410  164.0090 C.3     1  UNL1        0.1037
      9 O         142.9109  138.6610  161.6084 O.3     1  UNL1       -0.3530
     10 C         143.5169  138.8256  166.0643 C.3     1  UNL1        0.0993
     11 C         141.4897  142.0251  168.4941 C.ar    1  UNL1        0.0684
     12 C         141.8423  142.2834  167.0593 C.ar    1  UNL1        0.0100
     13 C         142.5181  141.2169  166.2493 C.ar    1  UNL1       -0.0022
     14 C         142.8412  139.8921  166.8742 C.ar    1  UNL1       -0.0061
     15 C         142.4885  139.6338  168.3092 C.ar    1  UNL1       -0.0022
     16 C         141.8128  140.7003  169.1191 C.ar    1  UNL1        0.0100
     17 N         140.1382  144.1581  170.1140 N.1     1  UNL1       -0.1908
     18 C         140.8140  143.0916  169.3040 C.1     1  UNL1        0.1004
     19 C         142.5068  138.5513  158.6377 C.3     1  UNL1        0.0999
     20 C         141.5822  139.5256  157.9700 C.3     1  UNL1        0.1896
     21 S         140.4994  140.1959  158.7627 S.O2    1  UNL1        0.0554
     22 O         139.6005  139.0176  158.5311 O.2     1  UNL1       -0.1544
     23 O         141.3983  141.3741  158.9942 O.2     1  UNL1       -0.1544
     24 N         139.4166  140.8661  159.5553 N.pl3   1  UNL1       -0.2187
     25 H         138.7601  141.4430  159.1021 H       1  UNL1        0.1734
     26 C         139.3343  140.6576  161.0384 C.ar    1  UNL1        0.0645
     27 C         138.3152  139.7155  161.6079 C.ar    1  UNL1        0.0165
     28 C         138.2328  139.5070  163.0910 C.ar    1  UNL1        0.0116
     29 C         139.1695  140.2404  164.0047 C.ar    1  UNL1        0.0685
     30 C         140.1885  141.1823  163.4353 C.ar    1  UNL1        0.0116
     31 C         140.2709  141.3909  161.9521 C.ar    1  UNL1        0.0165
     32 C         139.0871  140.0318  165.4879 C.1     1  UNL1        0.1004
     33 N         139.0047  139.8232  166.9710 N.1     1  UNL1       -0.1908
@<TRIPOS>BOND
     1    17    18    3
     2    18    11    1
     3    11    12   ar
     4    12    13   ar
     5    13    14   ar
     6    14    10    1
     7    10     1    1
     8     1     2    1
     9     2     3    1
    10     3     4    1
    11     4     5    1
    12     5    19    1
    13    19    20    1
    14    20    21    1
    15    21    22    2
    16    21    23    2
    17    21    24    1
    18    24    26    1
    19    26    27   ar
    20    27    28   ar
    21    28    29   ar
    22    29    32    1
    23    32    33    3
    24    29    30   ar
    25    30    31   ar
    26     5     6    1
    27     6     7    1
    28     7     8    1
    29     7     9    1
    30    14    15   ar
    31    15    16   ar
    32    16    11   ar
    33     8     1    1
    34     9     3    1
    35    31    26   ar
    36    24    25    1
@<TRIPOS>MOLECULE
*****
 33 36 0 0 0
SMALL
GASTEIGER

@<TRIPOS>ATOM
      1 N         143.1905  138.7624  165.1877 N.3     1  UNL1       -0.2647
      2 C         144.2354  139.4689  164.3760 C.3     1  UNL1        0.1037
      3 C         144.0953  139.5556  162.8852 C.3     1  UNL1        0.1470
      4 C         143.9552  139.6423  161.3942 C.3     1  UNL1        0.1035
      5 N         142.7701  139.0225  160.7150 N.3     1  UNL1       -0.2669
      6 C         141.7251  138.3160  161.5267 C.3     1  UNL1        0.1035
      7 C         141.8652  138.2293  163.0176 C.3     1  UNL1        0.1470
      8 C         142.0054  138.1426  164.5085 C.3     1  UNL1        0.1037
      9 O         142.9102  138.9358  162.2059 O.3     1  UNL1       -0.3530
     10 C         143.3306  138.6757  166.6787 C.3     1  UNL1        0.0993
     11 C         140.9443  141.4224  169.3265 C.ar    1  UNL1        0.0684
     12 C         141.1515  141.7668  167.8814 C.ar    1  UNL1        0.0100
     13 C         141.9469  140.8512  166.9987 C.ar    1  UNL1       -0.0022
     14 C         142.5352  139.5912  167.5613 C.ar    1  UNL1       -0.0061
     15 C         142.3280  139.2469  169.0065 C.ar    1  UNL1       -0.0022
     16 C         141.5325  140.1624  169.8890 C.ar    1  UNL1        0.0100
     17 N         139.3533  143.2536  171.0917 N.1     1  UNL1       -0.1908
     18 C         140.1489  142.3380  170.2090 C.1     1  UNL1        0.1004
     19 C         142.6299  139.1092  159.2241 C.3     1  UNL1        0.0999
     20 C         141.7849  138.1100  158.4908 C.3     1  UNL1        0.1896
     21 S         142.1953  137.6373  157.1277 S.O2    1  UNL1        0.0554
     22 O         140.8301  137.0518  156.9197 O.2     1  UNL1       -0.1544
     23 O         143.5605  138.2229  157.3357 O.2     1  UNL1       -0.1544
     24 N         142.6056  137.1646  155.7646 N.pl3   1  UNL1       -0.2187
     25 H         142.7265  137.8136  155.0343 H       1  UNL1        0.1734
     26 C         142.8319  135.7031  155.5143 C.ar    1  UNL1        0.0645
     27 C         143.7243  134.9152  156.4269 C.ar    1  UNL1        0.0165
     28 C         143.9506  133.4536  156.1766 C.ar    1  UNL1        0.0116
     29 C         143.2845  132.7800  155.0136 C.ar    1  UNL1        0.0685
     30 C         142.3922  133.5679  154.1010 C.ar    1  UNL1        0.0116
     31 C         142.1659  135.0294  154.3513 C.ar    1  UNL1        0.0165
     32 C         143.5108  131.3184  154.7632 C.1     1  UNL1        0.1004
     33 N         143.7371  129.8569  154.5128 N.1     1  UNL1       -0.1908
@<TRIPOS>BOND
     1    17    18    3
     2    18    11    1
     3    11    12   ar
     4    12    13   ar
     5    13    14   ar
     6    14    10    1
     7    10     1    1
     8     1     2    1
     9     2     3    1
    10     3     4    1
    11     4     5    1
    12     5    19    1
    13    19    20    1
    14    20    21    1
    15    21    22    2
    16    21    23    2
    17    21    24    1
    18    24    26    1
    19    26    27   ar
    20    27    28   ar
    21    28    29   ar
    22    29    32    1
    23    32    33    3
    24    29    30   ar
    25    30    31   ar
    26     5     6    1
    27     6     7    1
    28     7     8    1
    29     7     9    1
    30    14    15   ar
    31    15    16   ar
    32    16    11   ar
    33     8     1    1
    34     9     3    1
    35    31    26   ar
    36    24    25    1
