@<TRIPOS>MOLECULE
*****
 32 34 0 0 0
SMALL
GASTEIGER

@<TRIPOS>ATOM
      1 C         140.6654  143.9533  162.2952 C.ar    1  UNL1        0.0283
      2 C         139.4678  143.0743  162.0875 C.ar    1  UNL1        0.0365
      3 C         138.3187  143.1327  163.0498 C.ar    1  UNL1        0.1390
      4 C         138.3671  144.0701  164.2198 C.ar    1  UNL1        0.0392
      5 C         139.5646  144.9491  164.4275 C.ar    1  UNL1        0.0325
      6 C         140.7138  144.8907  163.4652 C.ar    1  UNL1        0.1379
      7 F         141.9114  145.7698  163.6729 F       1  UNL1       -0.2044
      8 C         141.8145  143.8949  161.3329 C.3     1  UNL1        0.1261
      9 C         144.2271  143.2812  162.0766 C.2     1  UNL1        0.4055
     10 O         144.4758  144.7124  162.4506 O.2     1  UNL1       -0.2262
     11 N         142.8964  142.8725  161.5178 N.am    1  UNL1       -0.2365
     12 C         145.5729  141.6836  163.6215 C.3     1  UNL1        0.2573
     13 O         145.3089  142.2588  162.2615 O.3     1  UNL1       -0.4304
     14 C         142.6476  141.4413  161.1438 C.3     1  UNL1        0.1388
     15 C         142.2557  140.4481  162.1973 C.2     1  UNL1        0.0706
     16 O         142.0379  140.9006  163.6107 O.co2   1  UNL1       -0.5474
     17 O         142.0816  139.0023  161.8374 O.co2   1  UNL1       -0.5474
     18 O         137.1211  142.2536  162.8421 O.3     1  UNL1       -0.4689
     19 C         137.2853  140.7638  162.7839 C.3     1  UNL1        0.2537
     20 C         138.2676  140.0817  163.6893 C.ar    1  UNL1        0.1359
     21 N         138.7529  140.5971  165.0118 N.ar    1  UNL1       -0.2093
     22 C         139.7223  139.5984  165.5710 C.ar    1  UNL1        0.2290
     23 O         139.8362  138.4657  164.5942 O.2     1  UNL1       -0.4391
     24 C         138.9372  138.7644  163.4313 C.ar    1  UNL1        0.1421
     25 C         138.7419  137.8980  162.2225 C.3     1  UNL1        0.0740
     26 C         140.4501  139.7123  166.8777 C.ar    1  UNL1        0.0536
     27 C         139.6893  140.0043  168.1370 C.ar    1  UNL1        0.0055
     28 C         140.4170  140.1183  169.4437 C.ar    1  UNL1        0.0115
     29 C         141.9057  139.9401  169.4910 C.ar    1  UNL1        0.0577
     30 CL        142.6335  140.0540  170.7977 Cl      1  UNL1       -0.0822
     31 C         142.6666  139.6480  168.2317 C.ar    1  UNL1        0.0115
     32 C         141.9388  139.5341  166.9251 C.ar    1  UNL1        0.0055
@<TRIPOS>UNITY_ATOM_ATTR
16 1
charge -1
@<TRIPOS>BOND
     1    12    13    1
     2    13     9    1
     3     9    10    2
     4     9    11   am
     5    11    14    1
     6    14    15    1
     7    15    16   ar
     8    15    17   ar
     9    11     8    1
    10     8     1    1
    11     1     2   ar
    12     2     3   ar
    13     3    18    1
    14    18    19    1
    15    19    20    1
    16    20    21   ar
    17    21    22   ar
    18    22    26    1
    19    26    27   ar
    20    27    28   ar
    21    28    29   ar
    22    29    30    1
    23    29    31   ar
    24    31    32   ar
    25    22    23   ar
    26    23    24   ar
    27    24    25    1
    28     3     4   ar
    29     4     5   ar
    30     5     6   ar
    31     6     7    1
    32     6     1   ar
    33    24    20   ar
    34    32    26   ar
@<TRIPOS>MOLECULE
*****
 32 34 0 0 0
SMALL
GASTEIGER

@<TRIPOS>ATOM
      1 C         142.3419  143.4769  161.5813 C.ar    1  UNL1        0.0283
      2 C         140.8715  143.2693  161.3698 C.ar    1  UNL1        0.0365
      3 C         139.8796  144.0423  162.1875 C.ar    1  UNL1        0.1390
      4 C         140.3582  145.0230  163.2167 C.ar    1  UNL1        0.0392
      5 C         141.8286  145.2306  163.4282 C.ar    1  UNL1        0.0325
      6 C         142.8204  144.4576  162.6105 C.ar    1  UNL1        0.1379
      7 F         144.2909  144.6652  162.8220 F       1  UNL1       -0.2044
      8 C         143.3337  142.7039  160.7636 C.3     1  UNL1        0.1261
      9 C         143.9079  140.2876  160.0008 C.2     1  UNL1        0.4055
     10 O         143.8955  140.7364  158.5696 O.2     1  UNL1       -0.2262
     11 N         143.6270  141.2713  161.0978 N.am    1  UNL1       -0.2365
     12 C         143.1014  137.8357  160.2971 C.3     1  UNL1        0.2573
     13 O         144.2012  138.8550  160.3350 O.3     1  UNL1       -0.4304
     14 C         143.6395  140.8225  162.5290 C.3     1  UNL1        0.1388
     15 C         144.9329  140.7681  163.2868 C.2     1  UNL1        0.0706
     16 O         146.0414  141.7200  162.9476 O.co2   1  UNL1       -0.5474
     17 O         145.1178  139.7618  164.3837 O.co2   1  UNL1       -0.5474
     18 O         138.4092  143.8347  161.9760 O.3     1  UNL1       -0.4689
     19 C         137.6341  142.9539  162.9105 C.3     1  UNL1        0.2537
     20 C         138.3268  141.8418  163.6408 C.ar    1  UNL1        0.1359
     21 N         139.0375  141.9594  164.9565 N.ar    1  UNL1       -0.2093
     22 C         139.5805  140.6072  165.3125 C.ar    1  UNL1        0.2290
     23 O         139.2054  139.6539  164.2168 O.2     1  UNL1       -0.4391
     24 C         138.4307  140.4169  163.1836 C.ar    1  UNL1        0.1421
     25 C         137.8599  139.8540  161.9158 C.3     1  UNL1        0.0740
     26 C         140.3614  140.2679  166.5474 C.ar    1  UNL1        0.0536
     27 C         141.7877  139.8177  166.4328 C.ar    1  UNL1        0.0055
     28 C         142.5687  139.4783  167.6676 C.ar    1  UNL1        0.0115
     29 C         141.9234  139.5892  169.0172 C.ar    1  UNL1        0.0577
     30 CL        142.7043  139.2498  170.2522 Cl      1  UNL1       -0.0822
     31 C         140.4971  140.0393  169.1319 C.ar    1  UNL1        0.0115
     32 C         139.7162  140.3787  167.8970 C.ar    1  UNL1        0.0055
@<TRIPOS>UNITY_ATOM_ATTR
16 1
charge -1
@<TRIPOS>BOND
     1    12    13    1
     2    13     9    1
     3     9    10    2
     4     9    11   am
     5    11    14    1
     6    14    15    1
     7    15    16   ar
     8    15    17   ar
     9    11     8    1
    10     8     1    1
    11     1     2   ar
    12     2     3   ar
    13     3    18    1
    14    18    19    1
    15    19    20    1
    16    20    21   ar
    17    21    22   ar
    18    22    26    1
    19    26    27   ar
    20    27    28   ar
    21    28    29   ar
    22    29    30    1
    23    29    31   ar
    24    31    32   ar
    25    22    23   ar
    26    23    24   ar
    27    24    25    1
    28     3     4   ar
    29     4     5   ar
    30     5     6   ar
    31     6     7    1
    32     6     1   ar
    33    24    20   ar
    34    32    26   ar
@<TRIPOS>MOLECULE
*****
 32 34 0 0 0
SMALL
GASTEIGER

@<TRIPOS>ATOM
      1 C         143.9948  141.3847  162.0824 C.ar    1  UNL1        0.0283
      2 C         142.9398  140.4149  161.6392 C.ar    1  UNL1        0.0365
      3 C         142.8668  139.0509  162.2590 C.ar    1  UNL1        0.1390
      4 C         143.8489  138.6567  163.3221 C.ar    1  UNL1        0.0392
      5 C         144.9039  139.6264  163.7653 C.ar    1  UNL1        0.0325
      6 C         144.9769  140.9904  163.1454 C.ar    1  UNL1        0.1379
      7 F         146.0320  141.9602  163.5887 F       1  UNL1       -0.2044
      8 C         144.0678  142.7487  161.4625 C.3     1  UNL1        0.1261
      9 C         141.9820  144.2951  161.5532 C.2     1  UNL1        0.4055
     10 O         141.3780  143.5480  160.4013 O.2     1  UNL1       -0.2262
     11 N         143.3270  143.8954  162.0838 N.am    1  UNL1       -0.2365
     12 C         139.9749  145.1909  162.9386 C.3     1  UNL1        0.2573
     13 O         141.2412  145.4419  162.1745 O.3     1  UNL1       -0.4304
     14 C         143.9310  144.6426  163.2358 C.3     1  UNL1        0.1388
     15 C         143.7581  144.1306  164.6351 C.2     1  UNL1        0.0706
     16 O         142.5367  143.3395  164.9988 O.co2   1  UNL1       -0.5474
     17 O         144.8067  144.4097  165.6708 O.co2   1  UNL1       -0.5474
     18 O         141.8117  138.0812  161.8158 O.3     1  UNL1       -0.4689
     19 C         140.7996  137.5728  162.7992 C.3     1  UNL1        0.2537
     20 C         140.1200  138.5263  163.7367 C.ar    1  UNL1        0.1359
     21 N         140.6278  138.9520  165.0824 N.ar    1  UNL1       -0.2093
     22 C         139.6350  139.9103  165.6705 C.ar    1  UNL1        0.2290
     23 O         138.5135  140.0769  164.6883 O.2     1  UNL1       -0.4391
     24 C         138.8134  139.2215  163.4931 C.ar    1  UNL1        0.1421
     25 C         137.9569  139.0853  162.2693 C.3     1  UNL1        0.0740
     26 C         139.7443  140.5839  167.0064 C.ar    1  UNL1        0.0536
     27 C         140.3419  141.9559  167.1079 C.ar    1  UNL1        0.0055
     28 C         140.4512  142.6296  168.4436 C.ar    1  UNL1        0.0115
     29 C         139.9630  141.9309  169.6780 C.ar    1  UNL1        0.0577
     30 CL        140.0723  142.6045  171.0139 Cl      1  UNL1       -0.0822
     31 C         139.3654  140.5589  169.5765 C.ar    1  UNL1        0.0115
     32 C         139.2561  139.8853  168.2407 C.ar    1  UNL1        0.0055
@<TRIPOS>UNITY_ATOM_ATTR
16 1
charge -1
@<TRIPOS>BOND
     1    12    13    1
     2    13     9    1
     3     9    10    2
     4     9    11   am
     5    11    14    1
     6    14    15    1
     7    15    16   ar
     8    15    17   ar
     9    11     8    1
    10     8     1    1
    11     1     2   ar
    12     2     3   ar
    13     3    18    1
    14    18    19    1
    15    19    20    1
    16    20    21   ar
    17    21    22   ar
    18    22    26    1
    19    26    27   ar
    20    27    28   ar
    21    28    29   ar
    22    29    30    1
    23    29    31   ar
    24    31    32   ar
    25    22    23   ar
    26    23    24   ar
    27    24    25    1
    28     3     4   ar
    29     4     5   ar
    30     5     6   ar
    31     6     7    1
    32     6     1   ar
    33    24    20   ar
    34    32    26   ar
@<TRIPOS>MOLECULE
*****
 32 34 0 0 0
SMALL
GASTEIGER

@<TRIPOS>ATOM
      1 C         143.3272  143.3902  162.8833 C.ar    1  UNL1        0.0283
      2 C         143.2848  142.1311  162.0692 C.ar    1  UNL1        0.0365
      3 C         144.2784  141.0375  162.3269 C.ar    1  UNL1        0.1390
      4 C         145.3146  141.2028  163.3987 C.ar    1  UNL1        0.0392
      5 C         145.3571  142.4619  164.2129 C.ar    1  UNL1        0.0325
      6 C         144.3634  143.5556  163.9552 C.ar    1  UNL1        0.1379
      7 F         144.4060  144.8147  164.7694 F       1  UNL1       -0.2044
      8 C         142.3336  144.4839  162.6256 C.3     1  UNL1        0.1261
      9 C         140.7828  144.4848  160.5410 C.2     1  UNL1        0.4055
     10 O         141.8708  145.1264  159.7319 O.2     1  UNL1       -0.2262
     11 N         141.0142  144.1636  161.9879 N.am    1  UNL1       -0.2365
     12 C         139.2945  142.8913  159.1284 C.3     1  UNL1        0.2573
     13 O         139.4635  144.1645  159.9034 O.3     1  UNL1       -0.4304
     14 C         139.9262  143.5220  162.7970 C.3     1  UNL1        0.1388
     15 C         138.8359  144.3647  163.3895 C.2     1  UNL1        0.0706
     16 O         137.5561  144.5738  162.6356 O.co2   1  UNL1       -0.5474
     17 O         139.0254  144.9983  164.7358 O.co2   1  UNL1       -0.5474
     18 O         144.2359  139.7783  161.5127 O.3     1  UNL1       -0.4689
     19 C         143.5327  138.5647  162.0444 C.3     1  UNL1        0.2537
     20 C         142.4991  138.7087  163.1219 C.ar    1  UNL1        0.1359
     21 N         142.7583  139.1063  164.5448 N.ar    1  UNL1       -0.2093
     22 C         141.4442  139.1237  165.2679 C.ar    1  UNL1        0.2290
     23 O         140.3729  138.7368  164.2919 O.2     1  UNL1       -0.4391
     24 C         141.0249  138.4804  162.9656 C.ar    1  UNL1        0.1421
     25 C         140.3254  138.0680  161.7044 C.3     1  UNL1        0.0740
     26 C         141.2377  139.4676  166.7133 C.ar    1  UNL1        0.0536
     27 C         139.8751  139.8580  167.2041 C.ar    1  UNL1        0.0055
     28 C         139.6685  140.2019  168.6495 C.ar    1  UNL1        0.0115
     29 C         140.8247  140.1554  169.6041 C.ar    1  UNL1        0.0577
     30 CL        140.6182  140.4993  171.0495 Cl      1  UNL1       -0.0822
     31 C         142.1873  139.7650  169.1133 C.ar    1  UNL1        0.0115
     32 C         142.3938  139.4211  167.6679 C.ar    1  UNL1        0.0055
@<TRIPOS>UNITY_ATOM_ATTR
16 1
charge -1
@<TRIPOS>BOND
     1    12    13    1
     2    13     9    1
     3     9    10    2
     4     9    11   am
     5    11    14    1
     6    14    15    1
     7    15    16   ar
     8    15    17   ar
     9    11     8    1
    10     8     1    1
    11     1     2   ar
    12     2     3   ar
    13     3    18    1
    14    18    19    1
    15    19    20    1
    16    20    21   ar
    17    21    22   ar
    18    22    26    1
    19    26    27   ar
    20    27    28   ar
    21    28    29   ar
    22    29    30    1
    23    29    31   ar
    24    31    32   ar
    25    22    23   ar
    26    23    24   ar
    27    24    25    1
    28     3     4   ar
    29     4     5   ar
    30     5     6   ar
    31     6     7    1
    32     6     1   ar
    33    24    20   ar
    34    32    26   ar
@<TRIPOS>MOLECULE
*****
 32 34 0 0 0
SMALL
GASTEIGER

@<TRIPOS>ATOM
      1 C         139.2593  143.2702  161.5992 C.ar    1  UNL1        0.0283
      2 C         140.7123  143.1993  161.2337 C.ar    1  UNL1        0.0365
      3 C         141.6802  144.1892  161.8112 C.ar    1  UNL1        0.1390
      4 C         141.1950  145.2500  162.7542 C.ar    1  UNL1        0.0392
      5 C         139.7419  145.3209  163.1196 C.ar    1  UNL1        0.0325
      6 C         138.7741  144.3310  162.5422 C.ar    1  UNL1        0.1379
      7 F         137.3210  144.4020  162.9077 F       1  UNL1       -0.2044
      8 C         138.2915  142.2804  161.0217 C.3     1  UNL1        0.1261
      9 C         138.1700  139.6853  161.0524 C.2     1  UNL1        0.4055
     10 O         138.6287  139.6470  159.6247 O.2     1  UNL1       -0.2262
     11 N         138.0014  141.0020  161.7509 N.am    1  UNL1       -0.2365
     12 C         138.9866  137.6752  162.4816 C.3     1  UNL1        0.2573
     13 O         137.8800  138.4070  161.7815 O.3     1  UNL1       -0.4304
     14 C         137.5428  141.0404  163.1785 C.3     1  UNL1        0.1388
     15 C         138.5027  140.7132  164.2837 C.2     1  UNL1        0.0706
     16 O         138.0183  140.0003  165.5113 O.co2   1  UNL1       -0.5474
     17 O         139.9471  141.0988  164.1612 O.co2   1  UNL1       -0.5474
     18 O         143.1333  144.1182  161.4456 O.3     1  UNL1       -0.4689
     19 C         144.1565  143.8039  162.4965 C.3     1  UNL1        0.2537
     20 C         143.8075  142.8899  163.6335 C.ar    1  UNL1        0.1359
     21 N         143.2224  143.3051  164.9508 N.ar    1  UNL1       -0.2093
     22 C         143.0356  142.0721  165.7843 C.ar    1  UNL1        0.2290
     23 O         143.5053  140.8948  164.9822 O.2     1  UNL1       -0.4391
     24 C         143.9824  141.4003  163.6529 C.ar    1  UNL1        0.1421
     25 C         144.5369  140.5631  162.5387 C.3     1  UNL1        0.0740
     26 C         142.4772  142.0247  167.1757 C.ar    1  UNL1        0.0536
     27 C         141.0391  141.6588  167.3946 C.ar    1  UNL1        0.0055
     28 C         140.4806  141.6113  168.7860 C.ar    1  UNL1        0.0115
     29 C         141.3603  141.9298  169.9585 C.ar    1  UNL1        0.0577
     30 CL        140.8019  141.8824  171.3499 Cl      1  UNL1       -0.0822
     31 C         142.7985  142.2957  169.7395 C.ar    1  UNL1        0.0115
     32 C         143.3569  142.3431  168.3482 C.ar    1  UNL1        0.0055
@<TRIPOS>UNITY_ATOM_ATTR
16 1
charge -1
@<TRIPOS>BOND
     1    12    13    1
     2    13     9    1
     3     9    10    2
     4     9    11   am
     5    11    14    1
     6    14    15    1
     7    15    16   ar
     8    15    17   ar
     9    11     8    1
    10     8     1    1
    11     1     2   ar
    12     2     3   ar
    13     3    18    1
    14    18    19    1
    15    19    20    1
    16    20    21   ar
    17    21    22   ar
    18    22    26    1
    19    26    27   ar
    20    27    28   ar
    21    28    29   ar
    22    29    30    1
    23    29    31   ar
    24    31    32   ar
    25    22    23   ar
    26    23    24   ar
    27    24    25    1
    28     3     4   ar
    29     4     5   ar
    30     5     6   ar
    31     6     7    1
    32     6     1   ar
    33    24    20   ar
    34    32    26   ar
@<TRIPOS>MOLECULE
*****
 32 34 0 0 0
SMALL
GASTEIGER

@<TRIPOS>ATOM
      1 C         139.4539  138.7816  165.6623 C.ar    1  UNL1        0.0283
      2 C         140.8712  139.2579  165.5426 C.ar    1  UNL1        0.0365
      3 C         141.4778  140.0891  166.6340 C.ar    1  UNL1        0.1390
      4 C         140.6671  140.4440  167.8451 C.ar    1  UNL1        0.0392
      5 C         139.2498  139.9676  167.9648 C.ar    1  UNL1        0.0325
      6 C         138.6432  139.1364  166.8734 C.ar    1  UNL1        0.1379
      7 F         137.2258  138.6601  166.9931 F       1  UNL1       -0.2044
      8 C         138.8473  137.9504  164.5709 C.3     1  UNL1        0.1261
      9 C         140.0699  137.8664  162.2800 C.2     1  UNL1        0.4055
     10 O         141.0673  136.9005  162.8477 O.2     1  UNL1       -0.2262
     11 N         138.9599  138.3914  163.1416 N.am    1  UNL1       -0.2365
     12 C         141.2119  139.3257  160.4589 C.3     1  UNL1        0.2573
     13 O         140.1826  138.3074  160.8507 O.3     1  UNL1       -0.4304
     14 C         137.9626  139.3573  162.5740 C.3     1  UNL1        0.1388
     15 C         138.1529  140.8325  162.7680 C.2     1  UNL1        0.0706
     16 O         139.5363  141.4033  162.8697 O.co2   1  UNL1       -0.5474
     17 O         136.9597  141.7369  162.8604 O.co2   1  UNL1       -0.5474
     18 O         142.8951  140.5654  166.5142 O.3     1  UNL1       -0.4689
     19 C         143.1802  141.9603  166.0420 C.3     1  UNL1        0.2537
     20 C         143.2743  142.2504  164.5734 C.ar    1  UNL1        0.1359
     21 N         142.3239  143.0965  163.7792 N.ar    1  UNL1       -0.2093
     22 C         142.7975  143.1144  162.3560 C.ar    1  UNL1        0.2290
     23 O         144.0406  142.2793  162.2707 O.2     1  UNL1       -0.4391
     24 C         144.3353  141.7453  163.6411 C.ar    1  UNL1        0.1421
     25 C         145.4885  140.8614  164.0137 C.3     1  UNL1        0.0740
     26 C         142.1429  143.8400  161.2180 C.ar    1  UNL1        0.0536
     27 C         141.0717  144.8536  161.4919 C.ar    1  UNL1        0.0055
     28 C         140.4170  145.5793  160.3539 C.ar    1  UNL1        0.0115
     29 C         140.8337  145.2912  158.9420 C.ar    1  UNL1        0.0577
     30 CL        140.1791  146.0167  157.8040 Cl      1  UNL1       -0.0822
     31 C         141.9049  144.2775  158.6681 C.ar    1  UNL1        0.0115
     32 C         142.5595  143.5519  159.8061 C.ar    1  UNL1        0.0055
@<TRIPOS>UNITY_ATOM_ATTR
16 1
charge -1
@<TRIPOS>BOND
     1    12    13    1
     2    13     9    1
     3     9    10    2
     4     9    11   am
     5    11    14    1
     6    14    15    1
     7    15    16   ar
     8    15    17   ar
     9    11     8    1
    10     8     1    1
    11     1     2   ar
    12     2     3   ar
    13     3    18    1
    14    18    19    1
    15    19    20    1
    16    20    21   ar
    17    21    22   ar
    18    22    26    1
    19    26    27   ar
    20    27    28   ar
    21    28    29   ar
    22    29    30    1
    23    29    31   ar
    24    31    32   ar
    25    22    23   ar
    26    23    24   ar
    27    24    25    1
    28     3     4   ar
    29     4     5   ar
    30     5     6   ar
    31     6     7    1
    32     6     1   ar
    33    24    20   ar
    34    32    26   ar
@<TRIPOS>MOLECULE
*****
 32 34 0 0 0
SMALL
GASTEIGER

@<TRIPOS>ATOM
      1 C         143.6458  141.3203  161.8405 C.ar    1  UNL1        0.0283
      2 C         142.7546  140.1424  161.5795 C.ar    1  UNL1        0.0365
      3 C         142.9252  138.8820  162.3746 C.ar    1  UNL1        0.1390
      4 C         143.9871  138.7994  163.4308 C.ar    1  UNL1        0.0392
      5 C         144.8783  139.9773  163.6919 C.ar    1  UNL1        0.0325
      6 C         144.7077  141.2377  162.8967 C.ar    1  UNL1        0.1379
      7 F         145.5990  142.4157  163.1579 F       1  UNL1       -0.2044
      8 C         143.4752  142.5807  161.0454 C.3     1  UNL1        0.1261
      9 C         142.2578  144.4505  162.3765 C.2     1  UNL1        0.4055
     10 O         143.4513  144.5884  163.2745 O.2     1  UNL1       -0.2262
     11 N         142.2698  143.4467  161.2619 N.am    1  UNL1       -0.2365
     12 C         140.1263  145.0398  163.7402 C.3     1  UNL1        0.2573
     13 O         141.0523  145.3165  162.5929 O.3     1  UNL1       -0.4304
     14 C         141.0762  143.3088  160.3639 C.3     1  UNL1        0.1388
     15 C         139.7917  142.7533  160.9037 C.2     1  UNL1        0.0706
     16 O         139.8063  141.8773  162.1212 O.co2   1  UNL1       -0.5474
     17 O         138.4925  143.0737  160.2259 O.co2   1  UNL1       -0.5474
     18 O         142.0339  137.7040  162.1135 O.3     1  UNL1       -0.4689
     19 C         141.0707  137.2441  163.1674 C.3     1  UNL1        0.2537
     20 C         140.3439  138.2503  164.0096 C.ar    1  UNL1        0.1359
     21 N         140.7982  138.7821  165.3366 N.ar    1  UNL1       -0.2093
     22 C         139.7703  139.7617  165.8199 C.ar    1  UNL1        0.2290
     23 O         138.6806  139.8354  164.7916 O.2     1  UNL1       -0.4391
     24 C         139.0352  138.9013  163.6729 C.ar    1  UNL1        0.1421
     25 C         138.2234  138.6604  162.4347 C.3     1  UNL1        0.0740
     26 C         139.8228  140.5324  167.1057 C.ar    1  UNL1        0.0536
     27 C         140.3839  141.9234  167.1240 C.ar    1  UNL1        0.0055
     28 C         140.4364  142.6942  168.4098 C.ar    1  UNL1        0.0115
     29 C         139.9278  142.0739  169.6773 C.ar    1  UNL1        0.0577
     30 CL        139.9803  142.8446  170.9631 Cl      1  UNL1       -0.0822
     31 C         139.3667  140.6829  169.6590 C.ar    1  UNL1        0.0115
     32 C         139.3142  139.9122  168.3732 C.ar    1  UNL1        0.0055
@<TRIPOS>UNITY_ATOM_ATTR
16 1
charge -1
@<TRIPOS>BOND
     1    12    13    1
     2    13     9    1
     3     9    10    2
     4     9    11   am
     5    11    14    1
     6    14    15    1
     7    15    16   ar
     8    15    17   ar
     9    11     8    1
    10     8     1    1
    11     1     2   ar
    12     2     3   ar
    13     3    18    1
    14    18    19    1
    15    19    20    1
    16    20    21   ar
    17    21    22   ar
    18    22    26    1
    19    26    27   ar
    20    27    28   ar
    21    28    29   ar
    22    29    30    1
    23    29    31   ar
    24    31    32   ar
    25    22    23   ar
    26    23    24   ar
    27    24    25    1
    28     3     4   ar
    29     4     5   ar
    30     5     6   ar
    31     6     7    1
    32     6     1   ar
    33    24    20   ar
    34    32    26   ar
@<TRIPOS>MOLECULE
*****
 32 34 0 0 0
SMALL
GASTEIGER

@<TRIPOS>ATOM
      1 C         139.9414  139.8345  161.6398 C.ar    1  UNL1        0.0283
      2 C         141.4406  139.8029  161.6052 C.ar    1  UNL1        0.0365
      3 C         142.1826  138.6797  162.2669 C.ar    1  UNL1        0.1390
      4 C         141.4254  137.5881  162.9633 C.ar    1  UNL1        0.0392
      5 C         139.9262  137.6197  162.9979 C.ar    1  UNL1        0.0325
      6 C         139.1842  138.7429  162.3362 C.ar    1  UNL1        0.1379
      7 F         137.6848  138.7745  162.3708 F       1  UNL1       -0.2044
      8 C         139.1994  140.9577  160.9781 C.3     1  UNL1        0.1261
      9 C         137.9705  142.6290  162.5423 C.2     1  UNL1        0.4055
     10 O         136.8917  141.6141  162.7791 O.2     1  UNL1       -0.2262
     11 N         139.1244  142.3008  161.6418 N.am    1  UNL1       -0.2365
     12 C         137.9810  144.0762  164.7000 C.3     1  UNL1        0.2573
     13 O         137.8955  143.9721  163.2060 O.3     1  UNL1       -0.4304
     14 C         140.2032  143.3157  161.4050 C.3     1  UNL1        0.1388
     15 C         139.9884  144.4214  160.4143 C.2     1  UNL1        0.0706
     16 O         139.6036  145.7907  160.8905 O.co2   1  UNL1       -0.5474
     17 O         140.1584  144.1577  158.9475 O.co2   1  UNL1       -0.5474
     18 O         143.6819  138.6482  162.2323 O.3     1  UNL1       -0.4689
     19 C         144.4664  138.8874  163.4882 C.3     1  UNL1        0.2537
     20 C         144.1245  140.0467  164.3766 C.ar    1  UNL1        0.1359
     21 N         143.1485  140.0269  165.5154 N.ar    1  UNL1       -0.2093
     22 C         143.1194  141.3972  166.1248 C.ar    1  UNL1        0.2290
     23 O         144.0775  142.2639  165.3626 O.2     1  UNL1       -0.4391
     24 C         144.6987  141.4292  164.2822 C.ar    1  UNL1        0.1421
     25 C         145.7155  141.8952  163.2827 C.3     1  UNL1        0.0740
     26 C         142.2797  141.8257  167.2916 C.ar    1  UNL1        0.0536
     27 C         140.7875  141.6840  167.2339 C.ar    1  UNL1        0.0055
     28 C         139.9477  142.1124  168.4006 C.ar    1  UNL1        0.0115
     29 C         140.6002  142.6826  169.6251 C.ar    1  UNL1        0.0577
     30 CL        139.7605  143.1110  170.7919 Cl      1  UNL1       -0.0822
     31 C         142.0924  142.8242  169.6828 C.ar    1  UNL1        0.0115
     32 C         142.9321  142.3958  168.5160 C.ar    1  UNL1        0.0055
@<TRIPOS>UNITY_ATOM_ATTR
16 1
charge -1
@<TRIPOS>BOND
     1    12    13    1
     2    13     9    1
     3     9    10    2
     4     9    11   am
     5    11    14    1
     6    14    15    1
     7    15    16   ar
     8    15    17   ar
     9    11     8    1
    10     8     1    1
    11     1     2   ar
    12     2     3   ar
    13     3    18    1
    14    18    19    1
    15    19    20    1
    16    20    21   ar
    17    21    22   ar
    18    22    26    1
    19    26    27   ar
    20    27    28   ar
    21    28    29   ar
    22    29    30    1
    23    29    31   ar
    24    31    32   ar
    25    22    23   ar
    26    23    24   ar
    27    24    25    1
    28     3     4   ar
    29     4     5   ar
    30     5     6   ar
    31     6     7    1
    32     6     1   ar
    33    24    20   ar
    34    32    26   ar
@<TRIPOS>MOLECULE
*****
 32 34 0 0 0
SMALL
GASTEIGER

@<TRIPOS>ATOM
      1 C         139.4353  143.5434  161.5170 C.ar    1  UNL1        0.0283
      2 C         140.9136  143.5199  161.2644 C.ar    1  UNL1        0.0365
      3 C         141.8306  144.3641  162.0990 C.ar    1  UNL1        0.1390
      4 C         141.2691  145.2318  163.1862 C.ar    1  UNL1        0.0392
      5 C         139.7908  145.2552  163.4387 C.ar    1  UNL1        0.0325
      6 C         138.8738  144.4110  162.6041 C.ar    1  UNL1        0.1379
      7 F         137.3954  144.4345  162.8568 F       1  UNL1       -0.2044
      8 C         138.5183  142.6992  160.6824 C.3     1  UNL1        0.1261
      9 C         137.7301  140.5669  161.9402 C.2     1  UNL1        0.4055
     10 O         136.9342  141.4182  162.8846 O.2     1  UNL1       -0.2262
     11 N         138.5222  141.2074  160.8391 N.am    1  UNL1       -0.2365
     12 C         138.5525  138.4368  163.1799 C.3     1  UNL1        0.2573
     13 O         137.7340  139.0751  162.0969 O.3     1  UNL1       -0.4304
     14 C         139.3181  140.3561  159.8947 C.3     1  UNL1        0.1388
     15 C         140.5705  139.6800  160.3685 C.2     1  UNL1        0.0706
     16 O         141.2273  140.1246  161.6417 O.co2   1  UNL1       -0.5474
     17 O         141.1661  138.5592  159.5691 O.co2   1  UNL1       -0.5474
     18 O         143.3090  144.3407  161.8464 O.3     1  UNL1       -0.4689
     19 C         144.2399  143.8007  162.8913 C.3     1  UNL1        0.2537
     20 C         143.8069  142.6605  163.7645 C.ar    1  UNL1        0.1359
     21 N         143.1033  142.7782  165.0839 N.ar    1  UNL1       -0.2093
     22 C         142.8630  141.3929  165.6064 C.ar    1  UNL1        0.2290
     23 O         143.4182  140.4188  164.6098 O.2     1  UNL1       -0.4391
     24 C         144.0015  141.2023  163.4714 C.ar    1  UNL1        0.1421
     25 C         144.6633  140.6283  162.2538 C.3     1  UNL1        0.0740
     26 C         142.1864  141.0429  166.8986 C.ar    1  UNL1        0.0536
     27 C         140.9807  141.8145  167.3469 C.ar    1  UNL1        0.0055
     28 C         140.3040  141.4646  168.6390 C.ar    1  UNL1        0.0115
     29 C         140.8332  140.3430  169.4830 C.ar    1  UNL1        0.0577
     30 CL        140.1566  139.9930  170.7752 Cl      1  UNL1       -0.0822
     31 C         142.0389  139.5714  169.0347 C.ar    1  UNL1        0.0115
     32 C         142.7155  139.9214  167.7425 C.ar    1  UNL1        0.0055
@<TRIPOS>UNITY_ATOM_ATTR
16 1
charge -1
@<TRIPOS>BOND
     1    12    13    1
     2    13     9    1
     3     9    10    2
     4     9    11   am
     5    11    14    1
     6    14    15    1
     7    15    16   ar
     8    15    17   ar
     9    11     8    1
    10     8     1    1
    11     1     2   ar
    12     2     3   ar
    13     3    18    1
    14    18    19    1
    15    19    20    1
    16    20    21   ar
    17    21    22   ar
    18    22    26    1
    19    26    27   ar
    20    27    28   ar
    21    28    29   ar
    22    29    30    1
    23    29    31   ar
    24    31    32   ar
    25    22    23   ar
    26    23    24   ar
    27    24    25    1
    28     3     4   ar
    29     4     5   ar
    30     5     6   ar
    31     6     7    1
    32     6     1   ar
    33    24    20   ar
    34    32    26   ar
