@<TRIPOS>MOLECULE
*****
 39 44 0 0 0
SMALL
GASTEIGER

@<TRIPOS>ATOM
      1 C         137.7745  142.9111  163.2804 C.3     1  UNL1        0.0932
      2 C         137.9068  142.6715  161.8056 C.3     1  UNL1        0.0286
      3 C         137.9554  141.2693  161.2750 C.3     1  UNL1        0.0193
      4 C         137.8716  140.1068  162.2192 C.3     1  UNL1        0.0700
      5 C         137.7392  140.3464  163.6940 C.3     1  UNL1        0.0193
      6 C         137.6906  141.7485  164.2246 C.3     1  UNL1        0.0286
      7 C         137.8408  140.8570  162.5569 C.3     1  UNL1        0.1562
      8 O         137.7969  142.1250  163.0367 O.3     1  UNL1       -0.3572
      9 N         137.9202  138.7046  161.6885 N.3     1  UNL1       -0.2926
     10 H         137.3114  138.6781  160.8706 H       1  UNL1        0.1236
     11 C         139.2307  138.1051  161.2725 C.3     1  UNL1        0.1152
     12 C         140.4430  138.2775  162.1389 C.ar    1  UNL1        0.0765
     13 C         140.6148  137.4313  163.3655 C.ar    1  UNL1        0.0193
     14 C         141.8271  137.6037  164.2318 C.ar    1  UNL1        0.0411
     15 C         142.8676  138.6223  163.8716 C.ar    1  UNL1        0.1708
     16 C         142.6958  139.4684  162.6451 C.ar    1  UNL1        0.1682
     17 N         141.4835  139.2960  161.7787 N.ar    1  UNL1       -0.2304
     18 N         143.7364  140.4870  162.2848 N.am    1  UNL1       -0.2639
     19 C         144.9487  140.6594  163.1512 C.2     1  UNL1        0.2718
     20 O         145.9893  141.6780  162.7910 O.2     1  UNL1       -0.2707
     21 C         145.1205  139.8132  164.3778 C.3     1  UNL1        0.2898
     22 O         144.0799  138.7947  164.7380 O.3     1  UNL1       -0.4628
     23 H         143.6237  141.0424  161.4798 H       1  UNL1        0.1565
     24 C         137.7259  144.3133  163.8110 C.3     1  UNL1        0.0319
     25 C         138.8786  144.8559  164.6027 C.3     1  UNL1        0.0304
     26 C         142.2147  141.5429  167.2755 C.ar    1  UNL1        0.1931
     27 C         142.9549  141.9738  166.0441 C.ar    1  UNL1        0.0623
     28 C         142.3059  142.9099  165.0680 C.ar    1  UNL1        0.1019
     29 N         143.0460  143.3409  163.8366 N.ar    1  UNL1       -0.2422
     30 C         142.3970  144.2769  162.8605 C.ar    1  UNL1        0.0986
     31 C         141.0079  144.7819  163.1159 C.ar    1  UNL1        0.0179
     32 C         140.2677  144.3509  164.3473 C.ar    1  UNL1       -0.0013
     33 C         140.9167  143.4149  165.3233 C.ar    1  UNL1        0.0982
     34 N         140.1766  142.9839  166.5548 N.ar    1  UNL1       -0.2079
     35 C         140.8256  142.0479  167.5308 C.ar    1  UNL1        0.2602
     36 C         142.8276  139.1270  168.0091 C.3     1  UNL1        0.2527
     37 O         142.8637  140.6068  168.2515 O.3     1  UNL1       -0.4667
     38 O         140.0854  141.6168  168.7623 O.3     1  UNL1       -0.4541
     39 C         139.4144  140.2759  168.8032 C.3     1  UNL1        0.2543
@<TRIPOS>BOND
     1    36    37    1
     2    37    26    1
     3    26    27   ar
     4    27    28   ar
     5    28    29   ar
     6    29    30   ar
     7    30    31   ar
     8    31    32   ar
     9    32    25    1
    10    25    24    1
    11    24     1    1
    12     1     2    1
    13     2     3    1
    14     3     4    1
    15     4     9    1
    16     9    11    1
    17    11    12    1
    18    12    13   ar
    19    13    14   ar
    20    14    15   ar
    21    15    16   ar
    22    16    17   ar
    23    16    18    1
    24    18    19   am
    25    19    20    2
    26    19    21    1
    27    21    22    1
    28     4     5    1
    29     5     6    1
    30     4     7    1
    31     7     8    1
    32    32    33   ar
    33    33    34   ar
    34    34    35   ar
    35    35    38    1
    36    38    39    1
    37    35    26   ar
    38    33    28   ar
    39     6     1    1
    40     8     1    1
    41    17    12   ar
    42    22    15    1
    43     9    10    1
    44    18    23    1
@<TRIPOS>MOLECULE
*****
 39 44 0 0 0
SMALL
GASTEIGER

@<TRIPOS>ATOM
      1 C         142.1501  137.9466  164.1432 C.3     1  UNL1        0.0932
      2 C         142.9609  138.6115  165.2158 C.3     1  UNL1        0.0286
      3 C         144.1077  139.5041  164.8445 C.3     1  UNL1        0.0193
      4 C         144.4438  139.7319  163.4005 C.3     1  UNL1        0.0700
      5 C         143.6330  139.0670  162.3278 C.3     1  UNL1        0.0193
      6 C         142.4862  138.1744  162.6991 C.3     1  UNL1        0.0286
      7 C         143.8063  139.2343  163.5550 C.3     1  UNL1        0.1562
      8 O         142.7692  138.4271  163.8908 O.3     1  UNL1       -0.3572
      9 N         145.5907  140.6245  163.0292 N.3     1  UNL1       -0.2926
     10 H         145.6330  140.6410  162.0102 H       1  UNL1        0.1236
     11 C         145.6079  142.0529  163.4865 C.3     1  UNL1        0.1152
     12 C         144.4196  142.9341  163.2387 C.ar    1  UNL1        0.0765
     13 C         143.7538  143.6353  164.3855 C.ar    1  UNL1        0.0193
     14 C         142.5655  144.5165  164.1377 C.ar    1  UNL1        0.0411
     15 C         142.0429  144.6965  162.7433 C.ar    1  UNL1        0.1708
     16 C         142.7087  143.9953  161.5966 C.ar    1  UNL1        0.1682
     17 N         143.8970  143.1141  161.8443 N.ar    1  UNL1       -0.2304
     18 N         142.1862  144.1753  160.2021 N.am    1  UNL1       -0.2639
     19 C         140.9978  145.0565  159.9544 C.2     1  UNL1        0.2718
     20 O         140.4753  145.2365  158.5599 O.2     1  UNL1       -0.2707
     21 C         140.3320  145.7577  161.1012 C.3     1  UNL1        0.2898
     22 O         140.8546  145.5777  162.4956 O.3     1  UNL1       -0.4628
     23 H         142.6231  143.7151  159.4494 H       1  UNL1        0.1565
     24 C         141.0032  137.0540  164.5146 C.3     1  UNL1        0.0319
     25 C         139.6567  137.6459  164.8084 C.3     1  UNL1        0.0304
     26 C         139.1955  143.0342  164.7458 C.ar    1  UNL1        0.1931
     27 C         138.5319  142.5453  163.4926 C.ar    1  UNL1        0.0623
     28 C         138.4813  141.0760  163.1949 C.ar    1  UNL1        0.1019
     29 N         137.8177  140.5871  161.9417 N.ar    1  UNL1       -0.2422
     30 C         137.7671  139.1178  161.6441 C.ar    1  UNL1        0.0986
     31 C         138.3801  138.1374  162.5997 C.ar    1  UNL1        0.0179
     32 C         139.0437  138.6263  163.8528 C.ar    1  UNL1       -0.0013
     33 C         139.0943  140.0956  164.1505 C.ar    1  UNL1        0.0982
     34 N         139.7579  140.5846  165.4037 N.ar    1  UNL1       -0.2079
     35 C         139.8085  142.0538  165.7014 C.ar    1  UNL1        0.2602
     36 C         138.2143  145.1234  165.9385 C.3     1  UNL1        0.2527
     37 O         139.2462  144.5035  165.0435 O.3     1  UNL1       -0.4667
     38 O         140.4722  142.5428  166.9546 O.3     1  UNL1       -0.4541
     39 C         141.8855  142.1436  167.2596 C.3     1  UNL1        0.2543
@<TRIPOS>BOND
     1    36    37    1
     2    37    26    1
     3    26    27   ar
     4    27    28   ar
     5    28    29   ar
     6    29    30   ar
     7    30    31   ar
     8    31    32   ar
     9    32    25    1
    10    25    24    1
    11    24     1    1
    12     1     2    1
    13     2     3    1
    14     3     4    1
    15     4     9    1
    16     9    11    1
    17    11    12    1
    18    12    13   ar
    19    13    14   ar
    20    14    15   ar
    21    15    16   ar
    22    16    17   ar
    23    16    18    1
    24    18    19   am
    25    19    20    2
    26    19    21    1
    27    21    22    1
    28     4     5    1
    29     5     6    1
    30     4     7    1
    31     7     8    1
    32    32    33   ar
    33    33    34   ar
    34    34    35   ar
    35    35    38    1
    36    38    39    1
    37    35    26   ar
    38    33    28   ar
    39     6     1    1
    40     8     1    1
    41    17    12   ar
    42    22    15    1
    43     9    10    1
    44    18    23    1
@<TRIPOS>MOLECULE
*****
 39 44 0 0 0
SMALL
GASTEIGER

@<TRIPOS>ATOM
      1 C         140.8396  144.9537  162.8667 C.3     1  UNL1        0.0932
      2 C         141.9061  145.0842  163.9134 C.3     1  UNL1        0.0286
      3 C         143.2892  144.5706  163.6430 C.3     1  UNL1        0.0193
      4 C         143.6059  143.9264  162.3259 C.3     1  UNL1        0.0700
      5 C         142.5395  143.7958  161.2792 C.3     1  UNL1        0.0193
      6 C         141.1563  144.3095  161.5495 C.3     1  UNL1        0.0286
      7 C         142.8336  144.1928  162.4281 C.3     1  UNL1        0.1562
      8 O         141.5828  144.6572  162.6726 O.3     1  UNL1       -0.3572
      9 N         144.9891  143.4128  162.0556 N.3     1  UNL1       -0.2926
     10 H         145.5545  143.6459  162.8719 H       1  UNL1        0.1236
     11 C         145.2071  141.9546  161.7799 C.3     1  UNL1        0.1152
     12 C         144.5006  140.9213  162.6063 C.ar    1  UNL1        0.0765
     13 C         145.1340  140.4057  163.8645 C.ar    1  UNL1        0.0193
     14 C         144.4275  139.3724  164.6909 C.ar    1  UNL1        0.0411
     15 C         143.0876  138.8545  164.2592 C.ar    1  UNL1        0.1708
     16 C         142.4542  139.3700  163.0011 C.ar    1  UNL1        0.1682
     17 N         143.1607  140.4034  162.1746 N.ar    1  UNL1       -0.2304
     18 N         141.1142  138.8522  162.5693 N.am    1  UNL1       -0.2639
     19 C         140.4077  137.8188  163.3958 C.2     1  UNL1        0.2718
     20 O         139.0678  137.3010  162.9641 O.2     1  UNL1       -0.2707
     21 C         141.0412  137.3033  164.6540 C.3     1  UNL1        0.2898
     22 O         142.3811  137.8212  165.0857 O.3     1  UNL1       -0.4628
     23 H         140.6984  139.1905  161.7436 H       1  UNL1        0.1565
     24 C         139.4565  145.4673  163.1370 C.3     1  UNL1        0.0319
     25 C         138.5991  144.8032  164.1732 C.3     1  UNL1        0.0304
     26 C         140.3779  140.7828  167.3231 C.ar    1  UNL1        0.1931
     27 C         139.5489  140.1370  166.2527 C.ar    1  UNL1        0.0623
     28 C         138.8970  140.9806  165.1976 C.ar    1  UNL1        0.1019
     29 N         138.0681  140.3349  164.1272 N.ar    1  UNL1       -0.2422
     30 C         137.4161  141.1785  163.0721 C.ar    1  UNL1        0.0986
     31 C         137.5931  142.6680  163.0875 C.ar    1  UNL1        0.0179
     32 C         138.4221  143.3137  164.1579 C.ar    1  UNL1       -0.0013
     33 C         139.0740  142.4701  165.2129 C.ar    1  UNL1        0.0982
     34 N         139.9030  143.1159  166.2834 N.ar    1  UNL1       -0.2079
     35 C         140.5549  142.2722  167.3385 C.ar    1  UNL1        0.2602
     36 C         142.4619  139.5202  168.2247 C.3     1  UNL1        0.2527
     37 O         141.0298  139.9391  168.3783 O.3     1  UNL1       -0.4667
     38 O         141.3838  142.9180  168.4090 O.3     1  UNL1       -0.4541
     39 C         140.7350  143.3956  169.6742 C.3     1  UNL1        0.2543
@<TRIPOS>BOND
     1    36    37    1
     2    37    26    1
     3    26    27   ar
     4    27    28   ar
     5    28    29   ar
     6    29    30   ar
     7    30    31   ar
     8    31    32   ar
     9    32    25    1
    10    25    24    1
    11    24     1    1
    12     1     2    1
    13     2     3    1
    14     3     4    1
    15     4     9    1
    16     9    11    1
    17    11    12    1
    18    12    13   ar
    19    13    14   ar
    20    14    15   ar
    21    15    16   ar
    22    16    17   ar
    23    16    18    1
    24    18    19   am
    25    19    20    2
    26    19    21    1
    27    21    22    1
    28     4     5    1
    29     5     6    1
    30     4     7    1
    31     7     8    1
    32    32    33   ar
    33    33    34   ar
    34    34    35   ar
    35    35    38    1
    36    38    39    1
    37    35    26   ar
    38    33    28   ar
    39     6     1    1
    40     8     1    1
    41    17    12   ar
    42    22    15    1
    43     9    10    1
    44    18    23    1
@<TRIPOS>MOLECULE
*****
 39 44 0 0 0
SMALL
GASTEIGER

@<TRIPOS>ATOM
      1 C         141.7712  138.0956  164.2322 C.3     1  UNL1        0.0932
      2 C         141.9448  138.4999  162.7982 C.3     1  UNL1        0.0286
      3 C         143.1726  139.2498  162.3737 C.3     1  UNL1        0.0193
      4 C         144.2268  139.5954  163.3832 C.3     1  UNL1        0.0700
      5 C         144.0532  139.1912  164.8173 C.3     1  UNL1        0.0193
      6 C         142.8254  138.4413  165.2418 C.3     1  UNL1        0.0286
      7 C         143.5713  139.1834  163.6633 C.3     1  UNL1        0.1562
      8 O         142.4610  138.5053  164.0471 O.3     1  UNL1       -0.3572
      9 N         145.4546  140.3453  162.9588 N.3     1  UNL1       -0.2926
     10 H         145.5329  140.2340  161.9479 H       1  UNL1        0.1236
     11 C         145.5725  141.8134  163.2431 C.3     1  UNL1        0.1152
     12 C         144.3678  142.6992  163.1256 C.ar    1  UNL1        0.0765
     13 C         143.6760  143.1924  164.3618 C.ar    1  UNL1        0.0193
     14 C         142.4713  144.0782  164.2444 C.ar    1  UNL1        0.0411
     15 C         141.9583  144.4710  162.8907 C.ar    1  UNL1        0.1708
     16 C         142.6500  143.9778  161.6545 C.ar    1  UNL1        0.1682
     17 N         143.8548  143.0920  161.7719 N.ar    1  UNL1       -0.2304
     18 N         142.1370  144.3706  160.3007 N.am    1  UNL1       -0.2639
     19 C         140.9323  145.2564  160.1832 C.2     1  UNL1        0.2718
     20 O         140.4192  145.6492  158.8295 O.2     1  UNL1       -0.2707
     21 C         140.2405  145.7496  161.4195 C.3     1  UNL1        0.2898
     22 O         140.7535  145.3568  162.7732 O.3     1  UNL1       -0.4628
     23 H         142.5910  144.0469  159.4893 H       1  UNL1        0.1565
     24 C         140.5434  137.3457  164.6566 C.3     1  UNL1        0.0319
     25 C         139.3159  138.0958  165.0813 C.3     1  UNL1        0.0304
     26 C         140.7880  142.3358  168.0987 C.ar    1  UNL1        0.1931
     27 C         140.1993  142.9042  166.8416 C.ar    1  UNL1        0.0623
     28 C         139.6841  141.9863  165.7730 C.ar    1  UNL1        0.1019
     29 N         139.0953  142.5546  164.5159 N.ar    1  UNL1       -0.2422
     30 C         138.5801  141.6367  163.4473 C.ar    1  UNL1        0.0986
     31 C         138.6536  140.1504  163.6358 C.ar    1  UNL1        0.0179
     32 C         139.2423  139.5821  164.8928 C.ar    1  UNL1       -0.0013
     33 C         139.7576  140.5000  165.9614 C.ar    1  UNL1        0.0982
     34 N         140.3463  139.9316  167.2186 N.ar    1  UNL1       -0.2079
     35 C         140.8615  140.8495  168.2872 C.ar    1  UNL1        0.2602
     36 C         140.3418  144.0400  170.0084 C.3     1  UNL1        0.2527
     37 O         141.3033  143.2537  169.1674 O.3     1  UNL1       -0.4667
     38 O         141.4503  140.2812  169.5444 O.3     1  UNL1       -0.4541
     39 C         140.5712  140.0133  170.7299 C.3     1  UNL1        0.2543
@<TRIPOS>BOND
     1    36    37    1
     2    37    26    1
     3    26    27   ar
     4    27    28   ar
     5    28    29   ar
     6    29    30   ar
     7    30    31   ar
     8    31    32   ar
     9    32    25    1
    10    25    24    1
    11    24     1    1
    12     1     2    1
    13     2     3    1
    14     3     4    1
    15     4     9    1
    16     9    11    1
    17    11    12    1
    18    12    13   ar
    19    13    14   ar
    20    14    15   ar
    21    15    16   ar
    22    16    17   ar
    23    16    18    1
    24    18    19   am
    25    19    20    2
    26    19    21    1
    27    21    22    1
    28     4     5    1
    29     5     6    1
    30     4     7    1
    31     7     8    1
    32    32    33   ar
    33    33    34   ar
    34    34    35   ar
    35    35    38    1
    36    38    39    1
    37    35    26   ar
    38    33    28   ar
    39     6     1    1
    40     8     1    1
    41    17    12   ar
    42    22    15    1
    43     9    10    1
    44    18    23    1
@<TRIPOS>MOLECULE
*****
 39 44 0 0 0
SMALL
GASTEIGER

@<TRIPOS>ATOM
      1 C         139.9117  137.9674  164.3697 C.3     1  UNL1        0.0932
      2 C         141.3162  138.0454  164.8904 C.3     1  UNL1        0.0286
      3 C         142.4740  137.9663  163.9400 C.3     1  UNL1        0.0193
      4 C         142.2273  137.8091  162.4689 C.3     1  UNL1        0.0700
      5 C         140.8227  137.7310  161.9480 C.3     1  UNL1        0.0193
      6 C         139.6649  137.8102  162.8985 C.3     1  UNL1        0.0286
      7 C         141.5609  137.8479  162.9509 C.3     1  UNL1        0.1562
      8 O         140.5139  137.9195  163.8103 O.3     1  UNL1       -0.3572
      9 N         143.3851  137.7299  161.5184 N.3     1  UNL1       -0.2926
     10 H         143.2747  136.8636  160.9914 H       1  UNL1        0.1236
     11 C         143.6074  138.8221  160.5147 C.3     1  UNL1        0.1152
     12 C         143.5558  140.2581  160.9450 C.ar    1  UNL1        0.0765
     13 C         143.0308  141.3039  160.0065 C.ar    1  UNL1        0.0193
     14 C         142.9792  142.7399  160.4368 C.ar    1  UNL1        0.0411
     15 C         143.4526  143.1302  161.8056 C.ar    1  UNL1        0.1708
     16 C         143.9776  142.0844  162.7440 C.ar    1  UNL1        0.1682
     17 N         144.0292  140.6484  162.3137 N.ar    1  UNL1       -0.2304
     18 N         144.4510  142.4747  164.1128 N.am    1  UNL1       -0.2639
     19 C         144.3994  143.9107  164.5431 C.2     1  UNL1        0.2718
     20 O         144.8728  144.3010  165.9119 O.2     1  UNL1       -0.2707
     21 C         143.8744  144.9565  163.6046 C.3     1  UNL1        0.2898
     22 O         143.4010  144.5662  162.2359 O.3     1  UNL1       -0.4628
     23 H         144.7956  141.7883  164.7288 H       1  UNL1        0.1565
     24 C         138.7540  138.0466  165.3201 C.3     1  UNL1        0.0319
     25 C         138.0884  139.3648  165.5832 C.3     1  UNL1        0.0304
     26 C         139.1710  144.2345  163.4944 C.ar    1  UNL1        0.1931
     27 C         139.8954  144.1743  164.8065 C.ar    1  UNL1        0.0623
     28 C         139.8059  142.9417  165.6567 C.ar    1  UNL1        0.1019
     29 N         140.5304  142.8815  166.9688 N.ar    1  UNL1       -0.2422
     30 C         140.4408  141.6490  167.8190 C.ar    1  UNL1        0.0986
     31 C         139.6268  140.4767  167.3571 C.ar    1  UNL1        0.0179
     32 C         138.9024  140.5370  166.0451 C.ar    1  UNL1       -0.0013
     33 C         138.9919  141.7695  165.1949 C.ar    1  UNL1        0.0982
     34 N         138.2675  141.8298  163.8828 N.ar    1  UNL1       -0.2079
     35 C         138.3570  143.0623  163.0326 C.ar    1  UNL1        0.2602
     36 C         140.2364  145.5242  161.5065 C.3     1  UNL1        0.2527
     37 O         139.2605  145.4671  162.6441 O.3     1  UNL1       -0.4667
     38 O         137.6325  143.1226  161.7204 O.3     1  UNL1       -0.4541
     39 C         138.2766  142.5731  160.4822 C.3     1  UNL1        0.2543
@<TRIPOS>BOND
     1    36    37    1
     2    37    26    1
     3    26    27   ar
     4    27    28   ar
     5    28    29   ar
     6    29    30   ar
     7    30    31   ar
     8    31    32   ar
     9    32    25    1
    10    25    24    1
    11    24     1    1
    12     1     2    1
    13     2     3    1
    14     3     4    1
    15     4     9    1
    16     9    11    1
    17    11    12    1
    18    12    13   ar
    19    13    14   ar
    20    14    15   ar
    21    15    16   ar
    22    16    17   ar
    23    16    18    1
    24    18    19   am
    25    19    20    2
    26    19    21    1
    27    21    22    1
    28     4     5    1
    29     5     6    1
    30     4     7    1
    31     7     8    1
    32    32    33   ar
    33    33    34   ar
    34    34    35   ar
    35    35    38    1
    36    38    39    1
    37    35    26   ar
    38    33    28   ar
    39     6     1    1
    40     8     1    1
    41    17    12   ar
    42    22    15    1
    43     9    10    1
    44    18    23    1
@<TRIPOS>MOLECULE
*****
 39 44 0 0 0
SMALL
GASTEIGER

@<TRIPOS>ATOM
      1 C         142.0681  137.9574  164.1799 C.3     1  UNL1        0.0932
      2 C         143.0049  138.4366  165.2489 C.3     1  UNL1        0.0286
      3 C         144.1776  139.2989  164.8871 C.3     1  UNL1        0.0193
      4 C         144.4137  139.6821  163.4562 C.3     1  UNL1        0.0700
      5 C         143.4769  139.2030  162.3871 C.3     1  UNL1        0.0193
      6 C         142.3041  138.3406  162.7489 C.3     1  UNL1        0.0286
      7 C         143.7575  139.2078  163.6059 C.3     1  UNL1        0.1562
      8 O         142.6970  138.4280  163.9331 O.3     1  UNL1       -0.3572
      9 N         145.5864  140.5445  163.0944 N.3     1  UNL1       -0.2926
     10 H         145.6876  140.4937  162.0807 H       1  UNL1        0.1236
     11 C         145.5874  142.0000  163.4572 C.3     1  UNL1        0.1152
     12 C         144.3231  142.8001  163.3514 C.ar    1  UNL1        0.0765
     13 C         143.5080  143.0804  164.5790 C.ar    1  UNL1        0.0193
     14 C         142.2437  143.8806  164.4732 C.ar    1  UNL1        0.0411
     15 C         141.7945  144.4005  163.1399 C.ar    1  UNL1        0.1708
     16 C         142.6096  144.1202  161.9123 C.ar    1  UNL1        0.1682
     17 N         143.8739  143.3201  162.0181 N.ar    1  UNL1       -0.2304
     18 N         142.1604  144.6402  160.5789 N.am    1  UNL1       -0.2639
     19 C         140.8960  145.4404  160.4731 C.2     1  UNL1        0.2718
     20 O         140.4468  145.9603  159.1397 O.2     1  UNL1       -0.2707
     21 C         140.0809  145.7206  161.7008 C.3     1  UNL1        0.2898
     22 O         140.5301  145.2007  163.0341 O.3     1  UNL1       -0.4628
     23 H         142.6954  144.4562  159.7732 H       1  UNL1        0.1565
     24 C         140.8954  137.0950  164.5417 C.3     1  UNL1        0.0319
     25 C         139.5743  137.7249  164.8704 C.3     1  UNL1        0.0304
     26 C         138.2900  141.7470  161.4906 C.ar    1  UNL1        0.1931
     27 C         138.5782  142.3917  162.8140 C.ar    1  UNL1        0.0623
     28 C         138.9714  141.5473  163.9898 C.ar    1  UNL1        0.1019
     29 N         139.2596  142.1920  165.3132 N.ar    1  UNL1       -0.2422
     30 C         139.6527  141.3476  166.4889 C.ar    1  UNL1        0.0986
     31 C         139.7576  139.8586  166.3413 C.ar    1  UNL1        0.0179
     32 C         139.4694  139.2139  165.0180 C.ar    1  UNL1       -0.0013
     33 C         139.0763  140.0583  163.8422 C.ar    1  UNL1        0.0982
     34 N         138.7881  139.4136  162.5188 N.ar    1  UNL1       -0.2079
     35 C         138.3950  140.2580  161.3430 C.ar    1  UNL1        0.2602
     36 C         138.8760  142.8336  159.2045 C.3     1  UNL1        0.2527
     37 O         137.8969  142.5914  160.3148 O.3     1  UNL1       -0.4667
     38 O         138.1067  139.6133  160.0196 O.3     1  UNL1       -0.4541
     39 C         139.2372  139.1588  159.1447 C.3     1  UNL1        0.2543
@<TRIPOS>BOND
     1    36    37    1
     2    37    26    1
     3    26    27   ar
     4    27    28   ar
     5    28    29   ar
     6    29    30   ar
     7    30    31   ar
     8    31    32   ar
     9    32    25    1
    10    25    24    1
    11    24     1    1
    12     1     2    1
    13     2     3    1
    14     3     4    1
    15     4     9    1
    16     9    11    1
    17    11    12    1
    18    12    13   ar
    19    13    14   ar
    20    14    15   ar
    21    15    16   ar
    22    16    17   ar
    23    16    18    1
    24    18    19   am
    25    19    20    2
    26    19    21    1
    27    21    22    1
    28     4     5    1
    29     5     6    1
    30     4     7    1
    31     7     8    1
    32    32    33   ar
    33    33    34   ar
    34    34    35   ar
    35    35    38    1
    36    38    39    1
    37    35    26   ar
    38    33    28   ar
    39     6     1    1
    40     8     1    1
    41    17    12   ar
    42    22    15    1
    43     9    10    1
    44    18    23    1
@<TRIPOS>MOLECULE
*****
 39 44 0 0 0
SMALL
GASTEIGER

@<TRIPOS>ATOM
      1 C         143.7331  139.2494  163.6595 C.3     1  UNL1        0.0932
      2 C         142.9275  138.5093  164.6857 C.3     1  UNL1        0.0286
      3 C         141.6700  137.7982  164.2819 C.3     1  UNL1        0.0193
      4 C         141.2181  137.8273  162.8519 C.3     1  UNL1        0.0700
      5 C         142.0237  138.5675  161.8257 C.3     1  UNL1        0.0193
      6 C         143.2813  139.2785  162.2294 C.3     1  UNL1        0.0286
      7 C         141.9139  138.2318  163.0254 C.3     1  UNL1        0.1562
      8 O         143.0511  138.8748  163.3905 O.3     1  UNL1       -0.3572
      9 N         139.9606  137.1163  162.4481 N.3     1  UNL1       -0.2926
     10 H         139.9568  136.2226  162.9398 H       1  UNL1        0.1236
     11 C         138.6257  137.7533  162.6975 C.3     1  UNL1        0.1152
     12 C         138.4471  139.2276  162.4866 C.ar    1  UNL1        0.0765
     13 C         138.3847  139.7841  161.0951 C.ar    1  UNL1        0.0193
     14 C         138.2061  141.2585  160.8843 C.ar    1  UNL1        0.0411
     15 C         138.0900  142.1763  162.0649 C.ar    1  UNL1        0.1708
     16 C         138.1524  141.6198  163.4565 C.ar    1  UNL1        0.1682
     17 N         138.3309  140.1455  163.6673 N.ar    1  UNL1       -0.2304
     18 N         138.0362  142.5377  164.6372 N.am    1  UNL1       -0.2639
     19 C         137.8576  144.0120  164.4264 C.2     1  UNL1        0.2718
     20 O         137.7415  144.9298  165.6070 O.2     1  UNL1       -0.2707
     21 C         137.7952  144.5685  163.0348 C.3     1  UNL1        0.2898
     22 O         137.9114  143.6506  161.8541 O.3     1  UNL1       -0.4628
     23 H         138.0772  142.1724  165.5505 H       1  UNL1        0.1565
     24 C         144.9907  139.9604  164.0633 C.3     1  UNL1        0.0319
     25 C         144.9520  141.4228  164.3948 C.3     1  UNL1        0.0304
     26 C         141.2242  141.9405  168.2788 C.ar    1  UNL1        0.1931
     27 C         140.7120  142.7201  167.1041 C.ar    1  UNL1        0.0623
     28 C         141.5159  142.7855  165.8394 C.ar    1  UNL1        0.1019
     29 N         141.0038  143.5651  164.6646 N.ar    1  UNL1       -0.2422
     30 C         141.8077  143.6305  163.4000 C.ar    1  UNL1        0.0986
     31 C         143.1238  142.9164  163.3101 C.ar    1  UNL1        0.0179
     32 C         143.6359  142.1369  164.4848 C.ar    1  UNL1       -0.0013
     33 C         142.8320  142.0714  165.7494 C.ar    1  UNL1        0.0982
     34 N         143.3441  141.2919  166.9242 N.ar    1  UNL1       -0.2079
     35 C         142.5402  141.2265  168.1889 C.ar    1  UNL1        0.2602
     36 C         139.3852  140.8039  169.7197 C.3     1  UNL1        0.2527
     37 O         140.4202  141.8751  169.5436 O.3     1  UNL1       -0.4667
     38 O         143.0523  140.4469  169.3637 O.3     1  UNL1       -0.4541
     39 C         142.5429  139.0602  169.6232 C.3     1  UNL1        0.2543
@<TRIPOS>BOND
     1    36    37    1
     2    37    26    1
     3    26    27   ar
     4    27    28   ar
     5    28    29   ar
     6    29    30   ar
     7    30    31   ar
     8    31    32   ar
     9    32    25    1
    10    25    24    1
    11    24     1    1
    12     1     2    1
    13     2     3    1
    14     3     4    1
    15     4     9    1
    16     9    11    1
    17    11    12    1
    18    12    13   ar
    19    13    14   ar
    20    14    15   ar
    21    15    16   ar
    22    16    17   ar
    23    16    18    1
    24    18    19   am
    25    19    20    2
    26    19    21    1
    27    21    22    1
    28     4     5    1
    29     5     6    1
    30     4     7    1
    31     7     8    1
    32    32    33   ar
    33    33    34   ar
    34    34    35   ar
    35    35    38    1
    36    38    39    1
    37    35    26   ar
    38    33    28   ar
    39     6     1    1
    40     8     1    1
    41    17    12   ar
    42    22    15    1
    43     9    10    1
    44    18    23    1
@<TRIPOS>MOLECULE
*****
 39 44 0 0 0
SMALL
GASTEIGER

@<TRIPOS>ATOM
      1 C         138.6419  144.1939  162.9770 C.3     1  UNL1        0.0932
      2 C         138.9486  143.8929  164.4141 C.3     1  UNL1        0.0286
      3 C         138.6672  142.5289  164.9712 C.3     1  UNL1        0.0193
      4 C         138.0791  141.4660  164.0912 C.3     1  UNL1        0.0700
      5 C         137.7724  141.7670  162.6540 C.3     1  UNL1        0.0193
      6 C         138.0539  143.1310  162.0969 C.3     1  UNL1        0.0286
      7 C         138.2159  142.1985  163.7409 C.3     1  UNL1        0.1562
      8 O         138.4704  143.4319  163.2371 O.3     1  UNL1       -0.3572
      9 N         137.7977  140.1020  164.6483 N.3     1  UNL1       -0.2926
     10 H         137.1090  139.6690  164.0330 H       1  UNL1        0.1236
     11 C         138.9142  139.1137  164.8120 C.3     1  UNL1        0.1152
     12 C         139.9422  139.3146  165.8857 C.ar    1  UNL1        0.0765
     13 C         141.3810  138.9865  165.6172 C.ar    1  UNL1        0.0193
     14 C         142.4090  139.1874  166.6909 C.ar    1  UNL1        0.0411
     15 C         141.9983  139.7163  168.0331 C.ar    1  UNL1        0.1708
     16 C         140.5594  140.0444  168.3015 C.ar    1  UNL1        0.1682
     17 N         139.5314  139.8435  167.2279 N.ar    1  UNL1       -0.2304
     18 N         140.1486  140.5733  169.6438 N.am    1  UNL1       -0.2639
     19 C         141.1766  140.7742  170.7175 C.2     1  UNL1        0.2718
     20 O         140.7658  141.3031  172.0596 O.2     1  UNL1       -0.2707
     21 C         142.6155  140.4461  170.4489 C.3     1  UNL1        0.2898
     22 O         143.0263  139.9171  169.1068 O.3     1  UNL1       -0.4628
     23 H         139.2042  140.7886  169.8200 H       1  UNL1        0.1565
     24 C         138.9233  145.5579  162.4199 C.3     1  UNL1        0.0319
     25 C         140.3230  145.9374  162.0366 C.3     1  UNL1        0.0304
     26 C         144.5580  142.6740  162.8520 C.ar    1  UNL1        0.1931
     27 C         144.2194  142.5600  161.3952 C.ar    1  UNL1        0.0623
     28 C         143.0760  143.3474  160.8271 C.ar    1  UNL1        0.1019
     29 N         142.7374  143.2335  159.3703 N.ar    1  UNL1       -0.2422
     30 C         141.5941  144.0209  158.8023 C.ar    1  UNL1        0.0986
     31 C         140.7892  144.9222  159.6910 C.ar    1  UNL1        0.0179
     32 C         141.1278  145.0361  161.1479 C.ar    1  UNL1       -0.0013
     33 C         142.2712  144.2487  161.7159 C.ar    1  UNL1        0.0982
     34 N         142.6098  144.3627  163.1728 N.ar    1  UNL1       -0.2079
     35 C         143.7531  143.5753  163.7408 C.ar    1  UNL1        0.2602
     36 C         145.4573  140.5297  164.0110 C.3     1  UNL1        0.2527
     37 O         145.7014  141.8866  163.4202 O.3     1  UNL1       -0.4667
     38 O         144.0918  143.6892  165.1977 O.3     1  UNL1       -0.4541
     39 C         143.5538  142.6849  166.1735 C.3     1  UNL1        0.2543
@<TRIPOS>BOND
     1    36    37    1
     2    37    26    1
     3    26    27   ar
     4    27    28   ar
     5    28    29   ar
     6    29    30   ar
     7    30    31   ar
     8    31    32   ar
     9    32    25    1
    10    25    24    1
    11    24     1    1
    12     1     2    1
    13     2     3    1
    14     3     4    1
    15     4     9    1
    16     9    11    1
    17    11    12    1
    18    12    13   ar
    19    13    14   ar
    20    14    15   ar
    21    15    16   ar
    22    16    17   ar
    23    16    18    1
    24    18    19   am
    25    19    20    2
    26    19    21    1
    27    21    22    1
    28     4     5    1
    29     5     6    1
    30     4     7    1
    31     7     8    1
    32    32    33   ar
    33    33    34   ar
    34    34    35   ar
    35    35    38    1
    36    38    39    1
    37    35    26   ar
    38    33    28   ar
    39     6     1    1
    40     8     1    1
    41    17    12   ar
    42    22    15    1
    43     9    10    1
    44    18    23    1
@<TRIPOS>MOLECULE
*****
 39 44 0 0 0
SMALL
GASTEIGER

@<TRIPOS>ATOM
      1 C         143.9514  139.1836  163.7416 C.3     1  UNL1        0.0932
      2 C         143.6016  138.9070  162.3095 C.3     1  UNL1        0.0286
      3 C         142.3307  138.1844  161.9739 C.3     1  UNL1        0.0193
      4 C         141.4096  137.7384  163.0704 C.3     1  UNL1        0.0700
      5 C         141.7593  138.0150  164.5027 C.3     1  UNL1        0.0193
      6 C         143.0302  138.7377  164.8383 C.3     1  UNL1        0.0286
      7 C         142.0947  138.1310  163.3034 C.3     1  UNL1        0.1562
      8 O         143.2440  138.7844  163.6069 O.3     1  UNL1       -0.3572
      9 N         140.1387  137.0158  162.7348 N.3     1  UNL1       -0.2926
     10 H         140.1743  136.1178  163.2174 H       1  UNL1        0.1236
     11 C         138.8136  137.6344  163.0685 C.3     1  UNL1        0.1152
     12 C         138.5695  139.0859  162.7797 C.ar    1  UNL1        0.0765
     13 C         138.2660  139.5314  161.3800 C.ar    1  UNL1        0.0193
     14 C         138.0219  140.9830  161.0912 C.ar    1  UNL1        0.0411
     15 C         138.0814  141.9891  162.2021 C.ar    1  UNL1        0.1708
     16 C         138.3850  141.5436  163.6019 C.ar    1  UNL1        0.1682
     17 N         138.6290  140.0920  163.8907 N.ar    1  UNL1       -0.2304
     18 N         138.4445  142.5497  164.7129 N.am    1  UNL1       -0.2639
     19 C         138.2004  144.0012  164.4241 C.2     1  UNL1        0.2718
     20 O         138.2600  145.0073  165.5351 O.2     1  UNL1       -0.2707
     21 C         137.8969  144.4467  163.0243 C.3     1  UNL1        0.2898
     22 O         137.8374  143.4406  161.9133 O.3     1  UNL1       -0.4628
     23 H         138.6437  142.2573  165.6316 H       1  UNL1        0.1565
     24 C         145.2223  139.9063  164.0772 C.3     1  UNL1        0.0319
     25 C         145.2736  141.4039  164.0104 C.3     1  UNL1        0.0304
     26 C         142.4223  143.5896  159.9678 C.ar    1  UNL1        0.1931
     27 C         141.6764  143.9168  161.2273 C.ar    1  UNL1        0.0623
     28 C         142.2027  143.4522  162.5530 C.ar    1  UNL1        0.1019
     29 N         141.4568  143.7794  163.8125 N.ar    1  UNL1       -0.2422
     30 C         141.9832  143.3148  165.1380 C.ar    1  UNL1        0.0986
     31 C         143.2554  142.5230  165.2040 C.ar    1  UNL1        0.0179
     32 C         144.0013  142.1957  163.9444 C.ar    1  UNL1       -0.0013
     33 C         143.4750  142.6603  162.6189 C.ar    1  UNL1        0.0982
     34 N         144.2209  142.3331  161.3593 N.ar    1  UNL1       -0.2079
     35 C         143.6945  142.7977  160.0337 C.ar    1  UNL1        0.2602
     36 C         141.5958  145.5073  158.4220 C.3     1  UNL1        0.2527
     37 O         141.8959  144.0542  158.6422 O.3     1  UNL1       -0.4667
     38 O         144.4404  142.4705  158.7741 O.3     1  UNL1       -0.4541
     39 C         144.2603  141.1316  158.1222 C.3     1  UNL1        0.2543
@<TRIPOS>BOND
     1    36    37    1
     2    37    26    1
     3    26    27   ar
     4    27    28   ar
     5    28    29   ar
     6    29    30   ar
     7    30    31   ar
     8    31    32   ar
     9    32    25    1
    10    25    24    1
    11    24     1    1
    12     1     2    1
    13     2     3    1
    14     3     4    1
    15     4     9    1
    16     9    11    1
    17    11    12    1
    18    12    13   ar
    19    13    14   ar
    20    14    15   ar
    21    15    16   ar
    22    16    17   ar
    23    16    18    1
    24    18    19   am
    25    19    20    2
    26    19    21    1
    27    21    22    1
    28     4     5    1
    29     5     6    1
    30     4     7    1
    31     7     8    1
    32    32    33   ar
    33    33    34   ar
    34    34    35   ar
    35    35    38    1
    36    38    39    1
    37    35    26   ar
    38    33    28   ar
    39     6     1    1
    40     8     1    1
    41    17    12   ar
    42    22    15    1
    43     9    10    1
    44    18    23    1
