@<TRIPOS>MOLECULE
*****
 34 37 0 0 0
SMALL
GASTEIGER

@<TRIPOS>ATOM
      1 C         142.7384  139.7347  164.7724 C.ar    1  UNL1        0.0835
      2 C         143.7503  138.7201  165.2156 C.ar    1  UNL1        0.1147
      3 N         143.8740  138.3696  166.6688 N.ar    1  UNL1       -0.2409
      4 C         142.9858  139.0337  167.6787 C.ar    1  UNL1        0.1002
      5 C         141.9739  140.0484  167.2355 C.ar    1  UNL1        0.0338
      6 C         141.8502  140.3989  165.7823 C.ar    1  UNL1        0.0645
      7 N         140.8383  141.4136  165.3390 N.pl3   1  UNL1       -0.3064
      8 C         139.4132  141.0030  165.1143 C.3     1  UNL1        0.0922
      9 C         138.4013  142.0176  164.6710 C.3     1  UNL1        0.0369
     10 C         138.8145  143.4430  164.4524 C.3     1  UNL1        0.0542
     11 N         137.8026  144.4576  164.0091 N.3     1  UNL1       -0.3221
     12 C         140.2396  143.8536  164.6771 C.3     1  UNL1        0.0369
     13 C         141.2515  142.8389  165.1204 C.3     1  UNL1        0.0922
     14 H         136.8928  144.0080  163.9064 H       1  UNL1        0.1188
     15 H         138.0886  144.8545  163.1141 H       1  UNL1        0.1188
     16 C         141.0857  140.7126  168.2454 C.ar    1  UNL1        0.0044
     17 C         139.9274  139.9628  168.8337 C.ar    1  UNL1        0.0115
     18 C         139.0392  140.6270  169.8437 C.ar    1  UNL1        0.0585
     19 CL        137.8808  139.8772  170.4319 Cl      1  UNL1       -0.0822
     20 C         139.3093  142.0409  170.2653 C.ar    1  UNL1        0.0228
     21 C         140.4676  142.7906  169.6771 C.ar    1  UNL1        0.0585
     22 CL        140.7378  144.2046  170.0988 Cl      1  UNL1       -0.0822
     23 C         141.3558  142.1265  168.6671 C.ar    1  UNL1        0.0115
     24 C         143.5850  141.0429  162.6934 C.2     1  UNL1        0.2670
     25 O         144.6789  141.6500  163.5209 O.2     1  UNL1       -0.2682
     26 N         142.6147  140.0853  163.3191 N.am    1  UNL1       -0.2770
     27 H         141.8967  139.6869  162.7760 H       1  UNL1        0.1553
     28 C         142.9740  143.7873  158.2240 C.3     1  UNL1        0.0540
     29 C         143.1804  142.6550  159.1858 C.ar    1  UNL1        0.0806
     30 C         143.2421  142.7677  160.6803 C.ar    1  UNL1        0.0398
     31 C         143.4613  141.3935  161.2402 C.ar    1  UNL1        0.1326
     32 N         143.5350  140.4314  160.0917 N.ar    1  UNL1       -0.2447
     33 C         143.7454  138.9498  160.1948 C.3     1  UNL1        0.1539
     34 N         143.3614  141.2110  158.8220 N.ar    1  UNL1       -0.1735
@<TRIPOS>BOND
     1    28    29    1
     2    29    30   ar
     3    30    31   ar
     4    31    24    1
     5    24    25    2
     6    24    26   am
     7    26     1    1
     8     1     2   ar
     9     2     3   ar
    10     3     4   ar
    11     4     5   ar
    12     5    16    1
    13    16    17   ar
    14    17    18   ar
    15    18    19    1
    16    18    20   ar
    17    20    21   ar
    18    21    22    1
    19    21    23   ar
    20     5     6   ar
    21     6     7    1
    22     7     8    1
    23     8     9    1
    24     9    10    1
    25    10    11    1
    26    10    12    1
    27    12    13    1
    28    31    32   ar
    29    32    33    1
    30    32    34   ar
    31    34    29   ar
    32     6     1   ar
    33    13     7    1
    34    23    16   ar
    35    26    27    1
    36    11    14    1
    37    11    15    1
@<TRIPOS>MOLECULE
*****
 34 37 0 0 0
SMALL
GASTEIGER

@<TRIPOS>ATOM
      1 C         142.7313  139.7487  164.7158 C.ar    1  UNL1        0.0835
      2 C         143.7468  138.7338  165.1501 C.ar    1  UNL1        0.1147
      3 N         143.8804  138.3802  166.6016 N.ar    1  UNL1       -0.2409
      4 C         142.9985  139.0416  167.6190 C.ar    1  UNL1        0.1002
      5 C         141.9830  140.0564  167.1847 C.ar    1  UNL1        0.0338
      6 C         141.8494  140.4100  165.7331 C.ar    1  UNL1        0.0645
      7 N         140.8338  141.4249  165.2988 N.pl3   1  UNL1       -0.3064
      8 C         139.4255  140.9991  165.0064 C.3     1  UNL1        0.0922
      9 C         138.4100  142.0139  164.5721 C.3     1  UNL1        0.0369
     10 C         138.8026  143.4547  164.4302 C.3     1  UNL1        0.0542
     11 N         137.7871  144.4696  163.9959 N.3     1  UNL1       -0.3221
     12 C         140.2109  143.8806  164.7226 C.3     1  UNL1        0.0369
     13 C         141.2264  142.8656  165.1569 C.3     1  UNL1        0.0922
     14 H         136.8903  144.0087  163.8417 H       1  UNL1        0.1188
     15 H         138.0960  144.9106  163.1296 H       1  UNL1        0.1188
     16 C         141.1011  140.7178  168.2020 C.ar    1  UNL1        0.0044
     17 C         141.3758  142.1294  168.6284 C.ar    1  UNL1        0.0115
     18 C         140.4939  142.7907  169.6457 C.ar    1  UNL1        0.0585
     19 CL        140.7687  144.2024  170.0721 Cl      1  UNL1       -0.0822
     20 C         139.3373  142.0404  170.2366 C.ar    1  UNL1        0.0228
     21 C         139.0626  140.6288  169.8102 C.ar    1  UNL1        0.0585
     22 CL        137.9059  139.8784  170.4011 Cl      1  UNL1       -0.0822
     23 C         139.9445  139.9675  168.7929 C.ar    1  UNL1        0.0115
     24 C         143.4442  141.1923  162.6768 C.2     1  UNL1        0.2670
     25 O         144.4245  141.9288  163.5410 O.2     1  UNL1       -0.2682
     26 N         142.5976  140.1023  163.2642 N.am    1  UNL1       -0.2770
     27 H         141.9542  139.6190  162.6970 H       1  UNL1        0.1553
     28 C         142.7008  143.9289  158.2227 C.3     1  UNL1        0.0540
     29 C         142.9689  142.8038  159.1779 C.ar    1  UNL1        0.0806
     30 C         143.0119  142.9085  160.6736 C.ar    1  UNL1        0.0398
     31 C         143.3105  141.5460  161.2252 C.ar    1  UNL1        0.1326
     32 N         143.4520  140.5992  160.0704 N.ar    1  UNL1       -0.2447
     33 C         143.7521  139.1325  160.1644 C.3     1  UNL1        0.1539
     34 N         143.2409  141.3765  158.8051 N.ar    1  UNL1       -0.1735
@<TRIPOS>BOND
     1    28    29    1
     2    29    30   ar
     3    30    31   ar
     4    31    24    1
     5    24    25    2
     6    24    26   am
     7    26     1    1
     8     1     2   ar
     9     2     3   ar
    10     3     4   ar
    11     4     5   ar
    12     5    16    1
    13    16    17   ar
    14    17    18   ar
    15    18    19    1
    16    18    20   ar
    17    20    21   ar
    18    21    22    1
    19    21    23   ar
    20     5     6   ar
    21     6     7    1
    22     7     8    1
    23     8     9    1
    24     9    10    1
    25    10    11    1
    26    10    12    1
    27    12    13    1
    28    31    32   ar
    29    32    33    1
    30    32    34   ar
    31    34    29   ar
    32     6     1   ar
    33    13     7    1
    34    23    16   ar
    35    26    27    1
    36    11    14    1
    37    11    15    1
@<TRIPOS>MOLECULE
*****
 34 37 0 0 0
SMALL
GASTEIGER

@<TRIPOS>ATOM
      1 C         139.5474  139.3514  164.5474 C.ar    1  UNL1        0.0835
      2 C         138.2780  138.6085  164.8420 C.ar    1  UNL1        0.1147
      3 N         137.7563  138.5426  166.2468 N.ar    1  UNL1       -0.2409
      4 C         138.5040  139.2197  167.3570 C.ar    1  UNL1        0.1002
      5 C         139.7733  139.9627  167.0624 C.ar    1  UNL1        0.0338
      6 C         140.2950  140.0285  165.6576 C.ar    1  UNL1        0.0645
      7 N         141.5644  140.7714  165.3630 N.pl3   1  UNL1       -0.3064
      8 C         142.8671  140.0313  165.2908 C.3     1  UNL1        0.0922
      9 C         144.1365  140.7741  164.9962 C.3     1  UNL1        0.0369
     10 C         144.1032  142.2572  164.7737 C.3     1  UNL1        0.0542
     11 N         145.3725  143.0001  164.4791 N.3     1  UNL1       -0.3221
     12 C         142.8005  142.9974  164.8459 C.3     1  UNL1        0.0369
     13 C         141.5311  142.2544  165.1405 C.3     1  UNL1        0.0922
     14 H         146.1548  142.3455  164.4679 H       1  UNL1        0.1188
     15 H         145.5291  143.7048  165.1997 H       1  UNL1        0.1188
     16 C         140.5210  140.6398  168.1726 C.ar    1  UNL1        0.0044
     17 C         140.2204  142.0684  168.5171 C.ar    1  UNL1        0.0115
     18 C         140.9680  142.7455  169.6273 C.ar    1  UNL1        0.0585
     19 CL        140.6674  144.1741  169.9717 Cl      1  UNL1       -0.0822
     20 C         142.0163  141.9940  170.3930 C.ar    1  UNL1        0.0228
     21 C         142.3169  140.5654  170.0485 C.ar    1  UNL1        0.0585
     22 CL        143.3652  139.8138  170.8143 Cl      1  UNL1       -0.0822
     23 C         141.5692  139.8883  168.9383 C.ar    1  UNL1        0.0115
     24 C         140.8119  138.2500  162.5629 C.2     1  UNL1        0.2670
     25 O         141.0330  137.0170  163.3881 O.2     1  UNL1       -0.2682
     26 N         140.0691  139.4172  163.1425 N.am    1  UNL1       -0.2770
     27 H         139.9240  140.2265  162.6010 H       1  UNL1        0.1553
     28 C         141.0428  138.7164  157.3085 C.3     1  UNL1        0.0540
     29 C         141.4398  138.5302  158.7429 C.ar    1  UNL1        0.0806
     30 C         140.5130  138.5376  159.9223 C.ar    1  UNL1        0.0398
     31 C         141.3337  138.3158  161.1582 C.ar    1  UNL1        0.1326
     32 N         142.7677  138.1715  160.7426 N.ar    1  UNL1       -0.2447
     33 C         143.9318  137.9359  161.6588 C.3     1  UNL1        0.1539
     34 N         142.8334  138.3040  159.2499 N.ar    1  UNL1       -0.1735
@<TRIPOS>BOND
     1    28    29    1
     2    29    30   ar
     3    30    31   ar
     4    31    24    1
     5    24    25    2
     6    24    26   am
     7    26     1    1
     8     1     2   ar
     9     2     3   ar
    10     3     4   ar
    11     4     5   ar
    12     5    16    1
    13    16    17   ar
    14    17    18   ar
    15    18    19    1
    16    18    20   ar
    17    20    21   ar
    18    21    22    1
    19    21    23   ar
    20     5     6   ar
    21     6     7    1
    22     7     8    1
    23     8     9    1
    24     9    10    1
    25    10    11    1
    26    10    12    1
    27    12    13    1
    28    31    32   ar
    29    32    33    1
    30    32    34   ar
    31    34    29   ar
    32     6     1   ar
    33    13     7    1
    34    23    16   ar
    35    26    27    1
    36    11    14    1
    37    11    15    1
@<TRIPOS>MOLECULE
*****
 34 37 0 0 0
SMALL
GASTEIGER

@<TRIPOS>ATOM
      1 C         142.5392  139.7057  164.4590 C.ar    1  UNL1        0.0835
      2 C         143.5836  138.6942  164.8276 C.ar    1  UNL1        0.1147
      3 N         143.8100  138.3405  166.2676 N.ar    1  UNL1       -0.2409
      4 C         142.9919  138.9984  167.3390 C.ar    1  UNL1        0.1002
      5 C         141.9475  140.0100  166.9704 C.ar    1  UNL1        0.0338
      6 C         141.7211  140.3636  165.5304 C.ar    1  UNL1        0.0645
      7 N         140.6766  141.3752  165.1617 N.pl3   1  UNL1       -0.3064
      8 C         141.0559  142.8162  164.9897 C.3     1  UNL1        0.0922
      9 C         140.0116  143.8278  164.6210 C.3     1  UNL1        0.0369
     10 C         138.5878  143.3984  164.4244 C.3     1  UNL1        0.0542
     11 N         137.5434  144.4099  164.0557 N.3     1  UNL1       -0.3221
     12 C         138.2085  141.9573  164.5965 C.3     1  UNL1        0.0369
     13 C         139.2530  140.9457  164.9651 C.3     1  UNL1        0.0922
     14 H         137.9741  145.3316  163.9813 H       1  UNL1        0.1188
     15 H         136.8203  144.4296  164.7749 H       1  UNL1        0.1188
     16 C         141.1294  140.6679  168.0418 C.ar    1  UNL1        0.0044
     17 C         139.9598  139.9457  168.6422 C.ar    1  UNL1        0.0115
     18 C         139.1417  140.6037  169.7136 C.ar    1  UNL1        0.0585
     19 CL        137.9720  139.8815  170.3140 Cl      1  UNL1       -0.0822
     20 C         139.4932  141.9837  170.1846 C.ar    1  UNL1        0.0228
     21 C         140.6628  142.7058  169.5842 C.ar    1  UNL1        0.0585
     22 CL        141.0144  144.0859  170.0553 Cl      1  UNL1       -0.0822
     23 C         141.4809  142.0479  168.5128 C.ar    1  UNL1        0.0115
     24 C         141.2770  139.3251  162.2202 C.2     1  UNL1        0.2670
     25 O         140.4676  138.2372  162.8616 O.2     1  UNL1       -0.2682
     26 N         142.3128  140.0594  163.0189 N.am    1  UNL1       -0.2770
     27 H         142.8441  140.7734  162.5980 H       1  UNL1        0.1553
     28 C         141.2485  139.1223  156.9440 C.3     1  UNL1        0.0540
     29 C         141.0375  139.5855  158.3550 C.ar    1  UNL1        0.0806
     30 C         141.4600  138.8553  159.5952 C.ar    1  UNL1        0.0398
     31 C         141.0506  139.6788  160.7802 C.ar    1  UNL1        0.1326
     32 N         140.3750  140.9180  160.2723 N.ar    1  UNL1       -0.2447
     33 C         139.8072  142.0211  161.1153 C.3     1  UNL1        0.1539
     34 N         140.3669  140.8604  158.7735 N.ar    1  UNL1       -0.1735
@<TRIPOS>BOND
     1    28    29    1
     2    29    30   ar
     3    30    31   ar
     4    31    24    1
     5    24    25    2
     6    24    26   am
     7    26     1    1
     8     1     2   ar
     9     2     3   ar
    10     3     4   ar
    11     4     5   ar
    12     5    16    1
    13    16    17   ar
    14    17    18   ar
    15    18    19    1
    16    18    20   ar
    17    20    21   ar
    18    21    22    1
    19    21    23   ar
    20     5     6   ar
    21     6     7    1
    22     7     8    1
    23     8     9    1
    24     9    10    1
    25    10    11    1
    26    10    12    1
    27    12    13    1
    28    31    32   ar
    29    32    33    1
    30    32    34   ar
    31    34    29   ar
    32     6     1   ar
    33    13     7    1
    34    23    16   ar
    35    26    27    1
    36    11    14    1
    37    11    15    1
@<TRIPOS>MOLECULE
*****
 34 37 0 0 0
SMALL
GASTEIGER

@<TRIPOS>ATOM
      1 C         139.6171  141.4282  162.4390 C.ar    1  UNL1        0.0835
      2 C         138.1353  141.2244  162.5513 C.ar    1  UNL1        0.1147
      3 N         137.5509  140.6450  163.8053 N.ar    1  UNL1       -0.2409
      4 C         138.4482  140.2694  164.9471 C.ar    1  UNL1        0.1002
      5 C         139.9300  140.4732  164.8348 C.ar    1  UNL1        0.0338
      6 C         140.5145  141.0526  163.5808 C.ar    1  UNL1        0.0645
      7 N         141.9964  141.2564  163.4685 N.pl3   1  UNL1       -0.3064
      8 C         142.8396  140.2475  162.7465 C.3     1  UNL1        0.0922
      9 C         144.3214  140.4512  162.6342 C.3     1  UNL1        0.0369
     10 C         144.9601  141.6639  163.2438 C.3     1  UNL1        0.0542
     11 N         146.4419  141.8677  163.1315 N.3     1  UNL1       -0.3221
     12 C         144.1169  142.6728  163.9657 C.3     1  UNL1        0.0369
     13 C         142.6350  142.4690  164.0781 C.3     1  UNL1        0.0922
     14 H         146.8535  141.0916  162.6132 H       1  UNL1        0.1188
     15 H         146.8512  141.9083  164.0648 H       1  UNL1        0.1188
     16 C         140.8274  140.0976  165.9766 C.ar    1  UNL1        0.0044
     17 C         140.5732  140.6559  167.3454 C.ar    1  UNL1        0.0115
     18 C         141.4706  140.2803  168.4872 C.ar    1  UNL1        0.0585
     19 CL        141.2163  140.8387  169.8560 Cl      1  UNL1       -0.0822
     20 C         142.6221  139.3464  168.2602 C.ar    1  UNL1        0.0228
     21 C         142.8763  138.7880  166.8914 C.ar    1  UNL1        0.0585
     22 CL        144.0279  137.8540  166.6644 Cl      1  UNL1       -0.0822
     23 C         141.9790  139.1636  165.7496 C.ar    1  UNL1        0.0115
     24 C         140.4781  143.4792  161.0967 C.2     1  UNL1        0.2670
     25 O         140.1701  144.3715  162.2625 O.2     1  UNL1       -0.2682
     26 N         140.2016  142.0076  161.1849 N.am    1  UNL1       -0.2770
     27 H         140.4038  141.4220  160.4198 H       1  UNL1        0.1553
     28 C         141.0204  146.1701  156.5861 C.3     1  UNL1        0.0540
     29 C         141.3119  145.2955  157.7694 C.ar    1  UNL1        0.0806
     30 C         140.3542  144.9578  158.8733 C.ar    1  UNL1        0.0398
     31 C         141.0626  144.0587  159.8426 C.ar    1  UNL1        0.1326
     32 N         142.4582  143.8407  159.3378 N.ar    1  UNL1       -0.2447
     33 C         143.5143  143.0051  159.9983 C.3     1  UNL1        0.1539
     34 N         142.6123  144.6051  158.0564 N.ar    1  UNL1       -0.1735
@<TRIPOS>BOND
     1    28    29    1
     2    29    30   ar
     3    30    31   ar
     4    31    24    1
     5    24    25    2
     6    24    26   am
     7    26     1    1
     8     1     2   ar
     9     2     3   ar
    10     3     4   ar
    11     4     5   ar
    12     5    16    1
    13    16    17   ar
    14    17    18   ar
    15    18    19    1
    16    18    20   ar
    17    20    21   ar
    18    21    22    1
    19    21    23   ar
    20     5     6   ar
    21     6     7    1
    22     7     8    1
    23     8     9    1
    24     9    10    1
    25    10    11    1
    26    10    12    1
    27    12    13    1
    28    31    32   ar
    29    32    33    1
    30    32    34   ar
    31    34    29   ar
    32     6     1   ar
    33    13     7    1
    34    23    16   ar
    35    26    27    1
    36    11    14    1
    37    11    15    1
@<TRIPOS>MOLECULE
*****
 34 37 0 0 0
SMALL
GASTEIGER

@<TRIPOS>ATOM
      1 C         142.4396  139.7336  164.3488 C.ar    1  UNL1        0.0835
      2 C         143.5062  138.7309  164.6757 C.ar    1  UNL1        0.1147
      3 N         143.7872  138.3741  166.1053 N.ar    1  UNL1       -0.2409
      4 C         143.0016  139.0199  167.2079 C.ar    1  UNL1        0.1002
      5 C         141.9350  140.0226  166.8809 C.ar    1  UNL1        0.0338
      6 C         141.6540  140.3794  165.4514 C.ar    1  UNL1        0.0645
      7 N         140.5873  141.3821  165.1243 N.pl3   1  UNL1       -0.3064
      8 C         140.9397  142.8334  164.9847 C.3     1  UNL1        0.0922
      9 C         139.8731  143.8361  164.6577 C.3     1  UNL1        0.0369
     10 C         138.4540  143.3874  164.4703 C.3     1  UNL1        0.0542
     11 N         137.3874  144.3901  164.1433 N.3     1  UNL1       -0.3221
     12 C         138.1016  141.9361  164.6099 C.3     1  UNL1        0.0369
     13 C         139.1683  140.9334  164.9369 C.3     1  UNL1        0.0922
     14 H         137.8013  145.3207  164.0869 H       1  UNL1        0.1188
     15 H         136.6748  144.3787  164.8730 H       1  UNL1        0.1188
     16 C         141.1494  140.6684  167.9835 C.ar    1  UNL1        0.0044
     17 C         141.5502  142.0190  168.4984 C.ar    1  UNL1        0.0115
     18 C         140.7646  142.6648  169.6010 C.ar    1  UNL1        0.0585
     19 CL        141.1656  144.0155  170.1159 Cl      1  UNL1       -0.0822
     20 C         139.5781  141.9600  170.1887 C.ar    1  UNL1        0.0228
     21 C         139.1772  140.6094  169.6738 C.ar    1  UNL1        0.0585
     22 CL        137.9907  139.9046  170.2615 Cl      1  UNL1       -0.0822
     23 C         139.9629  139.9636  168.5712 C.ar    1  UNL1        0.0115
     24 C         141.1466  139.3079  162.1358 C.2     1  UNL1        0.2670
     25 O         140.4157  138.1685  162.7821 O.2     1  UNL1       -0.2682
     26 N         142.1585  140.0905  162.9192 N.am    1  UNL1       -0.2770
     27 H         142.6382  140.8383  162.4950 H       1  UNL1        0.1553
     28 C         138.7599  141.1195  157.7882 C.3     1  UNL1        0.0540
     29 C         139.7685  140.4974  158.7079 C.ar    1  UNL1        0.0806
     30 C         139.6252  140.3333  160.1920 C.ar    1  UNL1        0.0398
     31 C         140.8655  139.6647  160.7063 C.ar    1  UNL1        0.1326
     32 N         141.7754  139.4156  159.5401 N.ar    1  UNL1       -0.2447
     33 C         143.1261  138.7659  159.5986 C.3     1  UNL1        0.1539
     34 N         141.0974  139.9302  158.3050 N.ar    1  UNL1       -0.1735
@<TRIPOS>BOND
     1    28    29    1
     2    29    30   ar
     3    30    31   ar
     4    31    24    1
     5    24    25    2
     6    24    26   am
     7    26     1    1
     8     1     2   ar
     9     2     3   ar
    10     3     4   ar
    11     4     5   ar
    12     5    16    1
    13    16    17   ar
    14    17    18   ar
    15    18    19    1
    16    18    20   ar
    17    20    21   ar
    18    21    22    1
    19    21    23   ar
    20     5     6   ar
    21     6     7    1
    22     7     8    1
    23     8     9    1
    24     9    10    1
    25    10    11    1
    26    10    12    1
    27    12    13    1
    28    31    32   ar
    29    32    33    1
    30    32    34   ar
    31    34    29   ar
    32     6     1   ar
    33    13     7    1
    34    23    16   ar
    35    26    27    1
    36    11    14    1
    37    11    15    1
@<TRIPOS>MOLECULE
*****
 34 37 0 0 0
SMALL
GASTEIGER

@<TRIPOS>ATOM
      1 C         143.8401  142.7573  162.0343 C.ar    1  UNL1        0.0835
      2 C         145.2238  142.1823  162.1035 C.ar    1  UNL1        0.1147
      3 N         145.6155  141.3073  163.2572 N.ar    1  UNL1       -0.2409
      4 C         144.6235  141.0073  164.3416 C.ar    1  UNL1        0.1002
      5 C         143.2399  141.5823  164.2724 C.ar    1  UNL1        0.0338
      6 C         142.8482  142.4573  163.1188 C.ar    1  UNL1        0.0645
      7 N         141.4644  143.0323  163.0495 N.pl3   1  UNL1       -0.3064
      8 C         140.3763  142.2846  162.3376 C.3     1  UNL1        0.0922
      9 C         138.9926  142.8595  162.2683 C.3     1  UNL1        0.0369
     10 C         138.6970  144.1823  162.9110 C.3     1  UNL1        0.0542
     11 N         137.3134  144.7573  162.8417 N.3     1  UNL1       -0.3221
     12 C         139.7852  144.9300  163.6230 C.3     1  UNL1        0.0369
     13 C         141.1689  144.3550  163.6922 C.3     1  UNL1        0.0922
     14 H         136.7064  144.1212  162.3246 H       1  UNL1        0.1188
     15 H         137.3435  145.6596  162.3671 H       1  UNL1        0.1188
     16 C         142.2479  141.2823  165.3568 C.ar    1  UNL1        0.0044
     17 C         142.2489  142.0923  166.6193 C.ar    1  UNL1        0.0115
     18 C         141.2570  141.7923  167.7037 C.ar    1  UNL1        0.0585
     19 CL        141.2580  142.6024  168.9662 Cl      1  UNL1       -0.0822
     20 C         140.2640  140.6823  167.5257 C.ar    1  UNL1        0.0228
     21 C         140.2630  139.8722  166.2633 C.ar    1  UNL1        0.0585
     22 CL        139.2699  138.7621  166.0853 Cl      1  UNL1       -0.0822
     23 C         141.2549  140.1722  165.1789 C.ar    1  UNL1        0.0115
     24 C         142.7581  143.0378  159.6890 C.2     1  UNL1        0.2670
     25 O         142.4595  141.5682  159.6510 O.2     1  UNL1       -0.2682
     26 N         143.4483  143.6323  160.8806 N.am    1  UNL1       -0.2770
     27 H         143.6443  144.5968  160.9056 H       1  UNL1        0.1553
     28 C         142.4539  145.1323  154.8515 C.3     1  UNL1        0.0540
     29 C         142.2265  144.8754  156.3118 C.ar    1  UNL1        0.0806
     30 C         142.8852  143.8062  157.1320 C.ar    1  UNL1        0.0398
     31 C         142.3663  143.9127  158.5353 C.ar    1  UNL1        0.1326
     32 N         141.3868  145.0478  158.5824 N.ar    1  UNL1       -0.2447
     33 C         140.6271  145.5072  159.7915 C.3     1  UNL1        0.1539
     34 N         141.3003  145.6428  157.2082 N.ar    1  UNL1       -0.1735
@<TRIPOS>BOND
     1    28    29    1
     2    29    30   ar
     3    30    31   ar
     4    31    24    1
     5    24    25    2
     6    24    26   am
     7    26     1    1
     8     1     2   ar
     9     2     3   ar
    10     3     4   ar
    11     4     5   ar
    12     5    16    1
    13    16    17   ar
    14    17    18   ar
    15    18    19    1
    16    18    20   ar
    17    20    21   ar
    18    21    22    1
    19    21    23   ar
    20     5     6   ar
    21     6     7    1
    22     7     8    1
    23     8     9    1
    24     9    10    1
    25    10    11    1
    26    10    12    1
    27    12    13    1
    28    31    32   ar
    29    32    33    1
    30    32    34   ar
    31    34    29   ar
    32     6     1   ar
    33    13     7    1
    34    23    16   ar
    35    26    27    1
    36    11    14    1
    37    11    15    1
@<TRIPOS>MOLECULE
*****
 34 37 0 0 0
SMALL
GASTEIGER

@<TRIPOS>ATOM
      1 C         143.8439  142.7483  162.0319 C.ar    1  UNL1        0.0835
      2 C         145.2314  142.1849  162.1171 C.ar    1  UNL1        0.1147
      3 N         145.6224  141.3279  163.2844 N.ar    1  UNL1       -0.2409
      4 C         144.6260  141.0343  164.3665 C.ar    1  UNL1        0.1002
      5 C         143.2385  141.5978  164.2813 C.ar    1  UNL1        0.0338
      6 C         142.8474  142.4548  163.1140 C.ar    1  UNL1        0.0645
      7 N         141.4599  143.0183  163.0288 N.pl3   1  UNL1       -0.3064
      8 C         140.3790  142.2476  162.3303 C.3     1  UNL1        0.0922
      9 C         138.9915  142.8110  162.2451 C.3     1  UNL1        0.0369
     10 C         138.6848  144.1452  162.8583 C.3     1  UNL1        0.0542
     11 N         137.2973  144.7086  162.7730 N.3     1  UNL1       -0.3221
     12 C         139.7656  144.9159  163.5567 C.3     1  UNL1        0.0369
     13 C         141.1532  144.3524  163.6420 C.3     1  UNL1        0.0922
     14 H         136.6962  144.0573  162.2682 H       1  UNL1        0.1188
     15 H         137.3223  145.6007  162.2791 H       1  UNL1        0.1188
     16 C         142.2420  141.3043  165.3634 C.ar    1  UNL1        0.0044
     17 C         141.2578  140.1852  165.1932 C.ar    1  UNL1        0.0115
     18 C         140.2614  139.8917  166.2752 C.ar    1  UNL1        0.0585
     19 CL        139.2771  138.7725  166.1050 Cl      1  UNL1       -0.0822
     20 C         140.2491  140.7172  167.5276 C.ar    1  UNL1        0.0228
     21 C         141.2333  141.8362  167.6978 C.ar    1  UNL1        0.0585
     22 CL        141.2211  142.6618  168.9502 Cl      1  UNL1       -0.0822
     23 C         142.2298  142.1298  166.6157 C.ar    1  UNL1        0.0115
     24 C         142.7809  142.9890  159.6735 C.2     1  UNL1        0.2670
     25 O         142.5002  141.5157  159.6497 O.2     1  UNL1       -0.2682
     26 N         143.4528  143.6054  160.8646 N.am    1  UNL1       -0.2770
     27 H         143.6370  144.5723  160.8802 H       1  UNL1        0.1553
     28 C         142.5042  145.0298  154.8115 C.3     1  UNL1        0.0540
     29 C         142.2626  144.7840  156.2714 C.ar    1  UNL1        0.0806
     30 C         142.9279  143.7337  157.1105 C.ar    1  UNL1        0.0398
     31 C         142.3898  143.8460  158.5062 C.ar    1  UNL1        0.1326
     32 N         141.3919  144.9657  158.5295 N.ar    1  UNL1       -0.2447
     33 C         140.6099  145.4250  159.7243 C.3     1  UNL1        0.1539
     34 N         141.3132  145.5454  157.1484 N.ar    1  UNL1       -0.1735
@<TRIPOS>BOND
     1    28    29    1
     2    29    30   ar
     3    30    31   ar
     4    31    24    1
     5    24    25    2
     6    24    26   am
     7    26     1    1
     8     1     2   ar
     9     2     3   ar
    10     3     4   ar
    11     4     5   ar
    12     5    16    1
    13    16    17   ar
    14    17    18   ar
    15    18    19    1
    16    18    20   ar
    17    20    21   ar
    18    21    22    1
    19    21    23   ar
    20     5     6   ar
    21     6     7    1
    22     7     8    1
    23     8     9    1
    24     9    10    1
    25    10    11    1
    26    10    12    1
    27    12    13    1
    28    31    32   ar
    29    32    33    1
    30    32    34   ar
    31    34    29   ar
    32     6     1   ar
    33    13     7    1
    34    23    16   ar
    35    26    27    1
    36    11    14    1
    37    11    15    1
@<TRIPOS>MOLECULE
*****
 34 37 0 0 0
SMALL
GASTEIGER

@<TRIPOS>ATOM
      1 C         140.2522  138.6949  161.2072 C.ar    1  UNL1        0.0835
      2 C         138.8698  138.1302  161.0653 C.ar    1  UNL1        0.1147
      3 N         137.8052  138.4950  162.0569 N.ar    1  UNL1       -0.2409
      4 C         138.1229  139.4246  163.1905 C.ar    1  UNL1        0.1002
      5 C         139.5052  139.9893  163.3324 C.ar    1  UNL1        0.0338
      6 C         140.5698  139.6244  162.3408 C.ar    1  UNL1        0.0645
      7 N         141.9523  140.1892  162.4827 N.pl3   1  UNL1       -0.3064
      8 C         143.0096  139.4106  163.2079 C.3     1  UNL1        0.0922
      9 C         144.3920  139.9753  163.3498 C.3     1  UNL1        0.0369
     10 C         144.7171  141.3185  162.7666 C.3     1  UNL1        0.0542
     11 N         146.0994  141.8832  162.9085 N.3     1  UNL1       -0.3221
     12 C         143.6597  142.0970  162.0414 C.3     1  UNL1        0.0369
     13 C         142.2773  141.5323  161.8995 C.3     1  UNL1        0.0922
     14 H         146.6838  141.2258  163.4250 H       1  UNL1        0.1188
     15 H         146.0550  142.7682  163.4137 H       1  UNL1        0.1188
     16 C         139.8229  140.9189  164.4660 C.ar    1  UNL1        0.0044
     17 C         140.5637  140.4110  165.6673 C.ar    1  UNL1        0.0115
     18 C         140.8814  141.3406  166.8009 C.ar    1  UNL1        0.0585
     19 CL        141.6222  140.8327  168.0022 Cl      1  UNL1       -0.0822
     20 C         140.4582  142.7781  166.7331 C.ar    1  UNL1        0.0228
     21 C         139.7174  143.2859  165.5318 C.ar    1  UNL1        0.0585
     22 CL        139.2943  144.7235  165.4639 Cl      1  UNL1       -0.0822
     23 C         139.3998  142.3564  164.3982 C.ar    1  UNL1        0.0115
     24 C         141.1977  138.7770  158.7887 C.2     1  UNL1        0.2670
     25 O         140.0138  139.5888  158.3535 O.2     1  UNL1       -0.2682
     26 N         141.3169  138.3300  160.2156 N.am    1  UNL1       -0.2770
     27 H         142.0939  137.7972  160.5013 H       1  UNL1        0.1553
     28 C         144.1338  136.0546  155.3465 C.3     1  UNL1        0.0540
     29 C         143.6120  137.1608  156.2149 C.ar    1  UNL1        0.0806
     30 C         142.4209  137.0814  157.1233 C.ar    1  UNL1        0.0398
     31 C         142.2624  138.4121  157.7971 C.ar    1  UNL1        0.1326
     32 N         143.3555  139.3139  157.3052 N.ar    1  UNL1       -0.2447
     33 C         143.5758  140.7389  157.7186 C.3     1  UNL1        0.1539
     34 N         144.1896  138.5406  156.3273 N.ar    1  UNL1       -0.1735
@<TRIPOS>BOND
     1    28    29    1
     2    29    30   ar
     3    30    31   ar
     4    31    24    1
     5    24    25    2
     6    24    26   am
     7    26     1    1
     8     1     2   ar
     9     2     3   ar
    10     3     4   ar
    11     4     5   ar
    12     5    16    1
    13    16    17   ar
    14    17    18   ar
    15    18    19    1
    16    18    20   ar
    17    20    21   ar
    18    21    22    1
    19    21    23   ar
    20     5     6   ar
    21     6     7    1
    22     7     8    1
    23     8     9    1
    24     9    10    1
    25    10    11    1
    26    10    12    1
    27    12    13    1
    28    31    32   ar
    29    32    33    1
    30    32    34   ar
    31    34    29   ar
    32     6     1   ar
    33    13     7    1
    34    23    16   ar
    35    26    27    1
    36    11    14    1
    37    11    15    1
