@<TRIPOS>MOLECULE
*****
 31 33 0 0 0
SMALL
GASTEIGER

@<TRIPOS>ATOM
      1 C         141.5045  138.8096  165.4472 C.ar    1  UNL1        0.1571
      2 C         141.2031  138.0440  164.1930 C.ar    1  UNL1        0.0574
      3 C         140.0318  138.4327  163.3402 C.ar    1  UNL1        0.0877
      4 N         139.7304  137.6670  162.0861 N.ar    1  UNL1       -0.2435
      5 C         138.5592  138.0557  161.2334 C.ar    1  UNL1        0.1023
      6 C         137.6894  139.2100  161.6348 C.ar    1  UNL1        0.0608
      7 C         137.9909  139.9756  162.8890 C.ar    1  UNL1        0.1384
      8 C         139.1621  139.5869  163.7417 C.ar    1  UNL1        0.0560
      9 C         139.4636  140.3526  164.9959 C.ar    1  UNL1        0.0263
     10 C         140.6348  139.9639  165.8486 C.ar    1  UNL1        0.1395
     11 S         140.9363  140.7295  167.1028 S.O2    1  UNL1        0.0083
     12 O         140.0293  139.8192  167.8766 O.2     1  UNL1       -0.1686
     13 O         141.8432  141.6398  166.3290 O.2     1  UNL1       -0.1686
     14 C         141.2378  141.4951  168.3569 C.3     1  UNL1        0.1152
     15 C         139.9314  141.0489  168.9435 C.3     1  UNL1        0.0240
     16 C         142.5442  141.9414  167.7704 C.3     1  UNL1        0.0240
     17 C         141.5393  142.2608  169.6111 C.3     1  UNL1        0.0240
     18 N         137.1211  141.1299  163.2904 N.pl3   1  UNL1       -0.2004
     19 H         136.1695  140.9816  163.4943 H       1  UNL1        0.2982
     20 C         137.7013  142.5102  163.3810 C.2     1  UNL1        0.3331
     21 N         137.7277  143.3768  164.6050 N.2     1  UNL1        0.0753
     22 N         138.3997  144.6685  164.2441 N.2     1  UNL1       -0.0428
     23 C         138.7886  144.6000  162.7969 C.2     1  UNL1        0.0948
     24 C         139.4865  145.6764  162.0197 C.3     1  UNL1        0.0519
     25 C         138.3569  143.2662  162.2635 C.3     1  UNL1        0.1480
     26 C         138.5474  142.7745  160.8593 C.3     1  UNL1        0.0190
     27 O         142.6758  138.4209  166.3000 O.3     1  UNL1       -0.4714
     28 C         144.0729  138.6640  165.8111 C.3     1  UNL1        0.2374
     29 C         144.3227  139.6632  164.7207 C.3     1  UNL1        0.1894
     30 C         144.3000  140.1681  162.1723 C.3     1  UNL1        0.1743
     31 O         144.4880  139.2010  163.3033 O.3     1  UNL1       -0.3471
@<TRIPOS>BOND
     1    30    31    1
     2    31    29    1
     3    29    28    1
     4    28    27    1
     5    27     1    1
     6     1     2   ar
     7     2     3   ar
     8     3     4   ar
     9     4     5   ar
    10     5     6   ar
    11     6     7   ar
    12     7    18    1
    13    18    20    1
    14    20    21    2
    15    21    22    1
    16    22    23    2
    17    23    24    1
    18    23    25    1
    19    25    26    1
    20     7     8   ar
    21     8     9   ar
    22     9    10   ar
    23    10    11    1
    24    11    12    2
    25    11    13    2
    26    11    14    1
    27    14    15    1
    28    14    16    1
    29    14    17    1
    30    10     1   ar
    31     8     3   ar
    32    25    20    1
    33    18    19    1
@<TRIPOS>MOLECULE
*****
 31 33 0 0 0
SMALL
GASTEIGER

@<TRIPOS>ATOM
      1 C         138.6066  140.1852  165.9036 C.ar    1  UNL1        0.1571
      2 C         137.8076  140.7228  164.7536 C.ar    1  UNL1        0.0574
      3 C         138.3062  141.9098  163.9837 C.ar    1  UNL1        0.0877
      4 N         137.5072  142.4474  162.8337 N.ar    1  UNL1       -0.2435
      5 C         138.0058  143.6342  162.0639 C.ar    1  UNL1        0.1023
      6 C         139.3035  144.2835  162.4441 C.ar    1  UNL1        0.0608
      7 C         140.1025  143.7459  163.5940 C.ar    1  UNL1        0.1384
      8 C         139.6039  142.5590  164.3639 C.ar    1  UNL1        0.0560
      9 C         140.4029  142.0214  165.5139 C.ar    1  UNL1        0.0263
     10 C         139.9043  140.8345  166.2837 C.ar    1  UNL1        0.1395
     11 S         140.7033  140.2968  167.4338 S.O2    1  UNL1        0.0083
     12 O         141.5072  139.4595  166.4838 O.2     1  UNL1       -0.1686
     13 O         139.8993  141.1342  168.3838 O.2     1  UNL1       -0.1686
     14 C         141.5022  139.7592  168.5838 C.3     1  UNL1        0.1152
     15 C         142.6284  139.4323  167.6486 C.3     1  UNL1        0.0240
     16 C         140.3761  140.0862  169.5191 C.3     1  UNL1        0.0240
     17 C         142.3012  139.2216  169.7338 C.3     1  UNL1        0.0240
     18 N         141.4002  144.3951  163.9742 N.pl3   1  UNL1       -0.2004
     19 H         141.4034  145.1715  164.5796 H       1  UNL1        0.2982
     20 C         142.6929  143.8616  163.4320 C.2     1  UNL1        0.3331
     21 N         143.2491  144.1213  162.0633 N.2     1  UNL1        0.0753
     22 N         144.5565  143.3948  161.9487 N.2     1  UNL1       -0.0428
     23 C         144.8083  142.6861  163.2465 C.2     1  UNL1        0.0948
     24 C         146.0021  141.8378  163.5707 C.3     1  UNL1        0.0519
     25 C         143.6566  142.9745  164.1632 C.3     1  UNL1        0.1480
     26 C         143.4965  142.4654  165.5651 C.3     1  UNL1        0.0190
     27 O         138.1080  138.9983  166.6735 O.3     1  UNL1       -0.4714
     28 C         138.2114  137.6236  166.0824 C.3     1  UNL1        0.2374
     29 C         139.1708  137.3601  164.9599 C.3     1  UNL1        0.1894
     30 C         139.5158  138.2230  162.5337 C.3     1  UNL1        0.1743
     31 O         138.7056  137.4571  163.5372 O.3     1  UNL1       -0.3471
@<TRIPOS>BOND
     1    30    31    1
     2    31    29    1
     3    29    28    1
     4    28    27    1
     5    27     1    1
     6     1     2   ar
     7     2     3   ar
     8     3     4   ar
     9     4     5   ar
    10     5     6   ar
    11     6     7   ar
    12     7    18    1
    13    18    20    1
    14    20    21    2
    15    21    22    1
    16    22    23    2
    17    23    24    1
    18    23    25    1
    19    25    26    1
    20     7     8   ar
    21     8     9   ar
    22     9    10   ar
    23    10    11    1
    24    11    12    2
    25    11    13    2
    26    11    14    1
    27    14    15    1
    28    14    16    1
    29    14    17    1
    30    10     1   ar
    31     8     3   ar
    32    25    20    1
    33    18    19    1
@<TRIPOS>MOLECULE
*****
 31 33 0 0 0
SMALL
GASTEIGER

@<TRIPOS>ATOM
      1 C         143.3112  140.4357  159.3244 C.ar    1  UNL1        0.1571
      2 C         142.7950  141.0517  158.0579 C.ar    1  UNL1        0.0574
      3 C         142.2627  142.4541  158.0687 C.ar    1  UNL1        0.0877
      4 N         141.7465  143.0701  156.8022 N.ar    1  UNL1       -0.2435
      5 C         141.2143  144.4724  156.8130 C.ar    1  UNL1        0.1023
      6 C         141.1982  145.2587  158.0902 C.ar    1  UNL1        0.0608
      7 C         141.7144  144.6427  159.3567 C.ar    1  UNL1        0.1384
      8 C         142.2467  143.2404  159.3459 C.ar    1  UNL1        0.0560
      9 C         142.7629  142.6243  160.6125 C.ar    1  UNL1        0.0263
     10 C         143.2952  141.2220  160.6017 C.ar    1  UNL1        0.1395
     11 S         143.8114  140.6059  161.8682 S.O2    1  UNL1        0.0083
     12 O         142.4908  139.9257  162.0757 O.2     1  UNL1       -0.1686
     13 O         145.1321  141.2862  161.6607 O.2     1  UNL1       -0.1686
     14 C         144.3277  139.9899  163.1347 C.3     1  UNL1        0.1152
     15 C         145.1983  141.1897  163.3634 C.3     1  UNL1        0.0240
     16 C         143.4570  138.7901  162.9060 C.3     1  UNL1        0.0240
     17 C         144.8440  139.3739  164.4011 C.3     1  UNL1        0.0240
     18 N         141.6984  145.4290  160.6340 N.pl3   1  UNL1       -0.2004
     19 H         142.4096  146.0847  160.8174 H       1  UNL1        0.2982
     20 C         140.5989  145.2164  161.6319 C.2     1  UNL1        0.3331
     21 N         139.1436  145.0374  161.3156 N.2     1  UNL1        0.0753
     22 N         138.4069  144.8558  162.6096 N.2     1  UNL1       -0.0428
     23 C         139.4069  144.9225  163.7257 C.2     1  UNL1        0.0948
     24 C         139.1053  144.7897  165.1889 C.3     1  UNL1        0.0519
     25 C         140.7617  145.1454  163.1214 C.3     1  UNL1        0.1480
     26 C         142.0525  145.2745  163.8744 C.3     1  UNL1        0.0190
     27 O         143.8435  139.0333  159.3137 O.3     1  UNL1       -0.4714
     28 C         142.9039  137.8757  159.1494 C.3     1  UNL1        0.2374
     29 C         142.6996  137.2617  157.7961 C.3     1  UNL1        0.1894
     30 C         144.0689  136.6534  155.6736 C.3     1  UNL1        0.1743
     31 O         143.5651  137.6798  156.6445 O.3     1  UNL1       -0.3471
@<TRIPOS>BOND
     1    30    31    1
     2    31    29    1
     3    29    28    1
     4    28    27    1
     5    27     1    1
     6     1     2   ar
     7     2     3   ar
     8     3     4   ar
     9     4     5   ar
    10     5     6   ar
    11     6     7   ar
    12     7    18    1
    13    18    20    1
    14    20    21    2
    15    21    22    1
    16    22    23    2
    17    23    24    1
    18    23    25    1
    19    25    26    1
    20     7     8   ar
    21     8     9   ar
    22     9    10   ar
    23    10    11    1
    24    11    12    2
    25    11    13    2
    26    11    14    1
    27    14    15    1
    28    14    16    1
    29    14    17    1
    30    10     1   ar
    31     8     3   ar
    32    25    20    1
    33    18    19    1
@<TRIPOS>MOLECULE
*****
 31 33 0 0 0
SMALL
GASTEIGER

@<TRIPOS>ATOM
      1 C         142.2679  140.6995  166.3542 C.ar    1  UNL1        0.1571
      2 C         143.3748  141.6350  165.9676 C.ar    1  UNL1        0.0574
      3 C         143.0647  142.8898  165.2063 C.ar    1  UNL1        0.0877
      4 N         144.1716  143.8253  164.8197 N.ar    1  UNL1       -0.2435
      5 C         143.8615  145.0800  164.0585 C.ar    1  UNL1        0.1023
      6 C         142.4446  145.3992  163.6839 C.ar    1  UNL1        0.0608
      7 C         141.3377  144.4637  164.0705 C.ar    1  UNL1        0.1384
      8 C         141.6478  143.2090  164.8317 C.ar    1  UNL1        0.0560
      9 C         140.5408  142.2733  165.2183 C.ar    1  UNL1        0.0263
     10 C         140.8509  141.0186  165.9796 C.ar    1  UNL1        0.1395
     11 S         139.7440  140.0830  166.3662 S.O2    1  UNL1        0.0083
     12 O         139.9158  139.3448  165.0718 O.2     1  UNL1       -0.1686
     13 O         139.5722  140.8212  167.6606 O.2     1  UNL1       -0.1686
     14 C         138.6371  139.1474  166.7529 C.3     1  UNL1        0.1152
     15 C         138.5397  138.6756  165.3324 C.3     1  UNL1        0.0240
     16 C         138.7345  139.6193  168.1733 C.3     1  UNL1        0.0240
     17 C         137.5303  138.2119  167.1395 C.3     1  UNL1        0.0240
     18 N         139.9207  144.7828  163.6959 N.pl3   1  UNL1       -0.2004
     19 H         139.4643  145.5523  164.1067 H       1  UNL1        0.2982
     20 C         139.1991  143.9296  162.6952 C.2     1  UNL1        0.3331
     21 N         137.9761  143.1026  162.9606 N.2     1  UNL1        0.0753
     22 N         137.5950  142.4155  161.6828 N.2     1  UNL1       -0.0428
     23 C         138.5824  142.8178  160.6278 C.2     1  UNL1        0.0948
     24 C         138.5790  142.3640  159.1981 C.3     1  UNL1        0.0519
     25 C         139.5738  143.7536  161.2534 C.3     1  UNL1        0.1480
     26 C         140.7359  144.3999  160.5593 C.3     1  UNL1        0.0190
     27 O         142.5779  139.4447  167.1154 O.3     1  UNL1       -0.4714
     28 C         142.6161  139.4671  168.6147 C.3     1  UNL1        0.2374
     29 C         142.6996  140.7756  169.3433 C.3     1  UNL1        0.1894
     30 C         140.8368  140.8472  171.1530 C.3     1  UNL1        0.1743
     31 O         142.2907  140.8592  170.7841 O.3     1  UNL1       -0.3471
@<TRIPOS>BOND
     1    30    31    1
     2    31    29    1
     3    29    28    1
     4    28    27    1
     5    27     1    1
     6     1     2   ar
     7     2     3   ar
     8     3     4   ar
     9     4     5   ar
    10     5     6   ar
    11     6     7   ar
    12     7    18    1
    13    18    20    1
    14    20    21    2
    15    21    22    1
    16    22    23    2
    17    23    24    1
    18    23    25    1
    19    25    26    1
    20     7     8   ar
    21     8     9   ar
    22     9    10   ar
    23    10    11    1
    24    11    12    2
    25    11    13    2
    26    11    14    1
    27    14    15    1
    28    14    16    1
    29    14    17    1
    30    10     1   ar
    31     8     3   ar
    32    25    20    1
    33    18    19    1
@<TRIPOS>MOLECULE
*****
 31 33 0 0 0
SMALL
GASTEIGER

@<TRIPOS>ATOM
      1 C         142.2668  140.9409  166.4421 C.ar    1  UNL1        0.1571
      2 C         143.3571  141.8833  166.0261 C.ar    1  UNL1        0.0574
      3 C         143.0282  143.0957  165.2062 C.ar    1  UNL1        0.0877
      4 N         144.1184  144.0381  164.7901 N.ar    1  UNL1       -0.2435
      5 C         143.7894  145.2503  163.9704 C.ar    1  UNL1        0.1023
      6 C         142.3702  145.5202  163.5667 C.ar    1  UNL1        0.0608
      7 C         141.2800  144.5778  163.9827 C.ar    1  UNL1        0.1384
      8 C         141.6089  143.3656  164.8025 C.ar    1  UNL1        0.0560
      9 C         140.5186  142.4231  165.2187 C.ar    1  UNL1        0.0263
     10 C         140.8476  141.2108  166.0384 C.ar    1  UNL1        0.1395
     11 S         139.7573  140.2683  166.4546 S.O2    1  UNL1        0.0083
     12 O         139.6814  140.9459  167.7906 O.2     1  UNL1       -0.1686
     13 O         139.8332  139.5907  165.1185 O.2     1  UNL1       -0.1686
     14 C         138.6671  139.3259  166.8706 C.3     1  UNL1        0.1152
     15 C         138.8697  139.7236  168.3026 C.3     1  UNL1        0.0240
     16 C         138.4645  138.9281  165.4386 C.3     1  UNL1        0.0240
     17 C         137.5769  138.3834  167.2867 C.3     1  UNL1        0.0240
     18 N         139.8608  144.8477  163.5790 N.pl3   1  UNL1       -0.2004
     19 H         139.3850  145.6284  163.9443 H       1  UNL1        0.2982
     20 C         139.1663  143.9282  162.6188 C.2     1  UNL1        0.3331
     21 N         137.9660  143.0808  162.9209 N.2     1  UNL1        0.0753
     22 N         137.6082  142.3234  161.6766 N.2     1  UNL1       -0.0428
     23 C         138.5873  142.7027  160.6053 C.2     1  UNL1        0.0948
     24 C         138.6010  142.1817  159.1989 C.3     1  UNL1        0.0519
     25 C         139.5503  143.6944  161.1876 C.3     1  UNL1        0.1480
     26 C         140.6961  144.3393  160.4657 C.3     1  UNL1        0.0190
     27 O         142.5958  139.7285  167.2620 O.3     1  UNL1       -0.4714
     28 C         143.2585  138.5461  166.6197 C.3     1  UNL1        0.2374
     29 C         143.2350  138.3919  165.1279 C.3     1  UNL1        0.1894
     30 C         144.0477  139.5229  162.9346 C.3     1  UNL1        0.1743
     31 O         144.3427  138.9683  164.2967 O.3     1  UNL1       -0.3471
@<TRIPOS>BOND
     1    30    31    1
     2    31    29    1
     3    29    28    1
     4    28    27    1
     5    27     1    1
     6     1     2   ar
     7     2     3   ar
     8     3     4   ar
     9     4     5   ar
    10     5     6   ar
    11     6     7   ar
    12     7    18    1
    13    18    20    1
    14    20    21    2
    15    21    22    1
    16    22    23    2
    17    23    24    1
    18    23    25    1
    19    25    26    1
    20     7     8   ar
    21     8     9   ar
    22     9    10   ar
    23    10    11    1
    24    11    12    2
    25    11    13    2
    26    11    14    1
    27    14    15    1
    28    14    16    1
    29    14    17    1
    30    10     1   ar
    31     8     3   ar
    32    25    20    1
    33    18    19    1
@<TRIPOS>MOLECULE
*****
 31 33 0 0 0
SMALL
GASTEIGER

@<TRIPOS>ATOM
      1 C         140.8062  142.6786  161.5927 C.ar    1  UNL1        0.1571
      2 C         139.7903  141.8386  160.8771 C.ar    1  UNL1        0.0574
      3 C         139.3547  140.5278  161.4620 C.ar    1  UNL1        0.0877
      4 N         138.3388  139.6877  160.7464 N.ar    1  UNL1       -0.2435
      5 C         137.9033  138.3770  161.3314 C.ar    1  UNL1        0.1023
      6 C         138.4838  137.9063  162.6320 C.ar    1  UNL1        0.0608
      7 C         139.4997  138.7463  163.3476 C.ar    1  UNL1        0.1384
      8 C         139.9352  140.0571  162.7626 C.ar    1  UNL1        0.0560
      9 C         140.9511  140.8972  163.4782 C.ar    1  UNL1        0.0263
     10 C         141.3866  142.2080  162.8933 C.ar    1  UNL1        0.1395
     11 S         142.4026  143.0481  163.6089 S.O2    1  UNL1        0.0083
     12 O         141.3013  143.7589  164.3381 O.2     1  UNL1       -0.1686
     13 O         143.5039  142.3373  162.8797 O.2     1  UNL1       -0.1686
     14 C         143.4185  143.8882  164.3245 C.3     1  UNL1        0.1152
     15 C         144.1062  142.6455  164.8071 C.3     1  UNL1        0.0240
     16 C         142.7309  145.1308  163.8419 C.3     1  UNL1        0.0240
     17 C         144.4345  144.7282  165.0400 C.3     1  UNL1        0.0240
     18 N         140.0801  138.2756  164.6482 N.pl3   1  UNL1       -0.2004
     19 H         140.8749  137.6947  164.6509 H       1  UNL1        0.2982
     20 C         139.4496  138.6900  165.9445 C.2     1  UNL1        0.3331
     21 N         138.0747  138.3179  166.4149 N.2     1  UNL1        0.0753
     22 N         137.8585  138.9472  167.7593 N.2     1  UNL1       -0.0428
     23 C         139.0999  139.7083  168.1198 C.2     1  UNL1        0.0948
     24 C         139.3194  140.4908  169.3804 C.3     1  UNL1        0.0519
     25 C         140.0832  139.5493  166.9983 C.3     1  UNL1        0.1480
     26 C         141.4586  140.1450  166.9404 C.3     1  UNL1        0.0190
     27 O         141.2417  143.9895  161.0077 O.3     1  UNL1       -0.4714
     28 C         140.2533  145.1070  160.8528 C.3     1  UNL1        0.2374
     29 C         139.5075  145.6198  162.0489 C.3     1  UNL1        0.1894
     30 C         137.8233  144.0360  163.2344 C.3     1  UNL1        0.1743
     31 O         138.0964  145.1768  162.2995 O.3     1  UNL1       -0.3471
@<TRIPOS>BOND
     1    30    31    1
     2    31    29    1
     3    29    28    1
     4    28    27    1
     5    27     1    1
     6     1     2   ar
     7     2     3   ar
     8     3     4   ar
     9     4     5   ar
    10     5     6   ar
    11     6     7   ar
    12     7    18    1
    13    18    20    1
    14    20    21    2
    15    21    22    1
    16    22    23    2
    17    23    24    1
    18    23    25    1
    19    25    26    1
    20     7     8   ar
    21     8     9   ar
    22     9    10   ar
    23    10    11    1
    24    11    12    2
    25    11    13    2
    26    11    14    1
    27    14    15    1
    28    14    16    1
    29    14    17    1
    30    10     1   ar
    31     8     3   ar
    32    25    20    1
    33    18    19    1
@<TRIPOS>MOLECULE
*****
 31 33 0 0 0
SMALL
GASTEIGER

@<TRIPOS>ATOM
      1 C         138.4868  141.1328  162.1915 C.ar    1  UNL1        0.1571
      2 C         138.4646  141.7216  160.8121 C.ar    1  UNL1        0.0574
      3 C         139.3268  142.9056  160.4881 C.ar    1  UNL1        0.0877
      4 N         139.3046  143.4945  159.1088 N.ar    1  UNL1       -0.2435
      5 C         140.1668  144.6785  158.7848 C.ar    1  UNL1        0.1023
      6 C         141.0510  145.2735  159.8403 C.ar    1  UNL1        0.0608
      7 C         141.0732  144.6847  161.2196 C.ar    1  UNL1        0.1384
      8 C         140.2110  143.5007  161.5436 C.ar    1  UNL1        0.0560
      9 C         140.2331  142.9118  162.9230 C.ar    1  UNL1        0.0263
     10 C         139.3710  141.7278  163.2469 C.ar    1  UNL1        0.1395
     11 S         139.3931  141.1389  164.6263 S.O2    1  UNL1        0.0083
     12 O         138.1346  141.8819  164.9638 O.2     1  UNL1       -0.1686
     13 O         140.6517  140.3959  164.2889 O.2     1  UNL1       -0.1686
     14 C         139.4153  140.5500  166.0057 C.3     1  UNL1        0.1152
     15 C         138.2145  139.7165  165.6691 C.3     1  UNL1        0.0240
     16 C         140.6160  141.3835  166.3423 C.3     1  UNL1        0.0240
     17 C         139.4374  139.9610  167.3850 C.3     1  UNL1        0.0240
     18 N         141.9574  145.2797  162.2751 N.pl3   1  UNL1       -0.2004
     19 H         141.8810  146.2351  162.5001 H       1  UNL1        0.2982
     20 C         142.9582  144.4192  162.9877 C.2     1  UNL1        0.3331
     21 N         143.2312  144.4213  164.4627 N.2     1  UNL1        0.0753
     22 N         144.3035  143.4088  164.7371 N.2     1  UNL1       -0.0428
     23 C         144.6932  142.7810  163.4317 C.2     1  UNL1        0.0948
     24 C         145.7318  141.7158  163.2409 C.3     1  UNL1        0.0519
     25 C         143.8618  143.4054  162.3505 C.3     1  UNL1        0.1480
     26 C         143.9231  143.0743  160.8889 C.3     1  UNL1        0.0190
     27 O         137.6246  139.9488  162.5154 O.3     1  UNL1       -0.4714
     28 C         137.9908  138.5899  161.9965 C.3     1  UNL1        0.2374
     29 C         139.0432  137.7795  162.6935 C.3     1  UNL1        0.1894
     30 C         141.0464  138.5567  161.2330 C.3     1  UNL1        0.1743
     31 O         140.3397  137.4796  162.0014 O.3     1  UNL1       -0.3471
@<TRIPOS>BOND
     1    30    31    1
     2    31    29    1
     3    29    28    1
     4    28    27    1
     5    27     1    1
     6     1     2   ar
     7     2     3   ar
     8     3     4   ar
     9     4     5   ar
    10     5     6   ar
    11     6     7   ar
    12     7    18    1
    13    18    20    1
    14    20    21    2
    15    21    22    1
    16    22    23    2
    17    23    24    1
    18    23    25    1
    19    25    26    1
    20     7     8   ar
    21     8     9   ar
    22     9    10   ar
    23    10    11    1
    24    11    12    2
    25    11    13    2
    26    11    14    1
    27    14    15    1
    28    14    16    1
    29    14    17    1
    30    10     1   ar
    31     8     3   ar
    32    25    20    1
    33    18    19    1
@<TRIPOS>MOLECULE
*****
 31 33 0 0 0
SMALL
GASTEIGER

@<TRIPOS>ATOM
      1 C         139.2476  141.1361  160.4024 C.ar    1  UNL1        0.1571
      2 C         140.0115  140.4800  159.2907 C.ar    1  UNL1        0.0574
      3 C         141.4426  140.8539  159.0413 C.ar    1  UNL1        0.0877
      4 N         142.2064  140.1977  157.9296 N.ar    1  UNL1       -0.2435
      5 C         143.6375  140.5716  157.6803 C.ar    1  UNL1        0.1023
      6 C         144.3047  141.6017  158.5427 C.ar    1  UNL1        0.0608
      7 C         143.5409  142.2578  159.6544 C.ar    1  UNL1        0.1384
      8 C         142.1099  141.8839  159.9037 C.ar    1  UNL1        0.0560
      9 C         141.3459  142.5401  161.0155 C.ar    1  UNL1        0.0263
     10 C         139.9149  142.1662  161.2648 C.ar    1  UNL1        0.1395
     11 S         139.1510  142.8224  162.3766 S.O2    1  UNL1        0.0083
     12 O         139.6312  141.7678  163.3290 O.2     1  UNL1       -0.1686
     13 O         138.6707  143.8769  161.4241 O.2     1  UNL1       -0.1686
     14 C         138.3871  143.4786  163.4882 C.3     1  UNL1        0.1152
     15 C         139.2520  144.6976  163.3630 C.3     1  UNL1        0.0240
     16 C         137.5222  142.2595  163.6135 C.3     1  UNL1        0.0240
     17 C         137.6232  144.1347  164.5999 C.3     1  UNL1        0.0240
     18 N         144.2082  143.2879  160.5168 N.pl3   1  UNL1       -0.2004
     19 H         144.3871  144.1877  160.1598 H       1  UNL1        0.2982
     20 C         144.6028  142.9470  161.9232 C.2     1  UNL1        0.3331
     21 N         145.4652  141.7933  162.3419 N.2     1  UNL1        0.0753
     22 N         145.5997  141.8332  163.8354 N.2     1  UNL1       -0.0428
     23 C         144.8203  143.0115  164.3397 C.2     1  UNL1        0.0948
     24 C         144.6815  143.4282  165.7739 C.3     1  UNL1        0.0519
     25 C         144.2042  143.6998  163.1579 C.3     1  UNL1        0.1480
     26 C         143.3411  144.9258  163.2029 C.3     1  UNL1        0.0190
     27 O         137.8165  140.7622  160.6517 O.3     1  UNL1       -0.4714
     28 C         137.4720  139.3747  161.1056 C.3     1  UNL1        0.2374
     29 C         138.2430  138.7383  162.2238 C.3     1  UNL1        0.1894
     30 C         140.7750  138.1569  162.2566 C.3     1  UNL1        0.1743
     31 O         139.3615  137.7870  161.9172 O.3     1  UNL1       -0.3471
@<TRIPOS>BOND
     1    30    31    1
     2    31    29    1
     3    29    28    1
     4    28    27    1
     5    27     1    1
     6     1     2   ar
     7     2     3   ar
     8     3     4   ar
     9     4     5   ar
    10     5     6   ar
    11     6     7   ar
    12     7    18    1
    13    18    20    1
    14    20    21    2
    15    21    22    1
    16    22    23    2
    17    23    24    1
    18    23    25    1
    19    25    26    1
    20     7     8   ar
    21     8     9   ar
    22     9    10   ar
    23    10    11    1
    24    11    12    2
    25    11    13    2
    26    11    14    1
    27    14    15    1
    28    14    16    1
    29    14    17    1
    30    10     1   ar
    31     8     3   ar
    32    25    20    1
    33    18    19    1
@<TRIPOS>MOLECULE
*****
 31 33 0 0 0
SMALL
GASTEIGER

@<TRIPOS>ATOM
      1 C         141.3945  141.2863  161.2122 C.ar    1  UNL1        0.1571
      2 C         141.7027  139.8286  161.3848 C.ar    1  UNL1        0.0574
      3 C         141.2260  139.1007  162.6067 C.ar    1  UNL1        0.0877
      4 N         141.5342  137.6430  162.7793 N.ar    1  UNL1       -0.2435
      5 C         141.0574  136.9152  164.0012 C.ar    1  UNL1        0.1023
      6 C         140.2724  137.6452  165.0504 C.ar    1  UNL1        0.0608
      7 C         139.9642  139.1029  164.8778 C.ar    1  UNL1        0.1384
      8 C         140.4409  139.8307  163.6559 C.ar    1  UNL1        0.0560
      9 C         140.1327  141.2886  163.4832 C.ar    1  UNL1        0.0263
     10 C         140.6095  142.0163  162.2614 C.ar    1  UNL1        0.1395
     11 S         140.3012  143.4742  162.0887 S.O2    1  UNL1        0.0083
     12 O         141.5605  143.8275  162.8230 O.2     1  UNL1       -0.1686
     13 O         139.0419  143.1209  161.3543 O.2     1  UNL1       -0.1686
     14 C         139.9930  144.9319  161.9160 C.3     1  UNL1        0.1152
     15 C         138.8029  144.7871  162.8174 C.3     1  UNL1        0.0240
     16 C         141.1831  145.0768  161.0146 C.3     1  UNL1        0.0240
     17 C         139.6847  146.3897  161.7433 C.3     1  UNL1        0.0240
     18 N         139.1792  139.8329  165.9270 N.pl3   1  UNL1       -0.2004
     19 H         138.3372  140.2833  165.6874 H       1  UNL1        0.2982
     20 C         139.6770  139.8767  167.3413 C.2     1  UNL1        0.3331
     21 N         138.8669  139.5893  168.5705 N.2     1  UNL1        0.0753
     22 N         139.7617  139.7505  169.7637 N.2     1  UNL1       -0.0428
     23 C         141.1249  140.1376  169.2717 C.2     1  UNL1        0.0948
     24 C         142.3289  140.4005  170.1267 C.3     1  UNL1        0.0519
     25 C         141.0726  140.2156  167.7747 C.3     1  UNL1        0.1480
     26 C         142.2151  140.5702  166.8698 C.3     1  UNL1        0.0190
     27 O         141.8712  142.0142  159.9902 O.3     1  UNL1       -0.4714
     28 C         143.3408  142.1970  159.7518 C.3     1  UNL1        0.2374
     29 C         144.2166  142.7351  160.8443 C.3     1  UNL1        0.1894
     30 C         145.3814  141.8887  163.0068 C.3     1  UNL1        0.1743
     31 O         145.2129  141.8382  161.5172 O.3     1  UNL1       -0.3471
@<TRIPOS>BOND
     1    30    31    1
     2    31    29    1
     3    29    28    1
     4    28    27    1
     5    27     1    1
     6     1     2   ar
     7     2     3   ar
     8     3     4   ar
     9     4     5   ar
    10     5     6   ar
    11     6     7   ar
    12     7    18    1
    13    18    20    1
    14    20    21    2
    15    21    22    1
    16    22    23    2
    17    23    24    1
    18    23    25    1
    19    25    26    1
    20     7     8   ar
    21     8     9   ar
    22     9    10   ar
    23    10    11    1
    24    11    12    2
    25    11    13    2
    26    11    14    1
    27    14    15    1
    28    14    16    1
    29    14    17    1
    30    10     1   ar
    31     8     3   ar
    32    25    20    1
    33    18    19    1
