@<TRIPOS>MOLECULE
*****
 36 41 0 0 0
SMALL
GASTEIGER

@<TRIPOS>ATOM
      1 C         144.4577  139.7571  163.4739 C.3     1  UNL1        0.0700
      2 C         143.6194  139.1813  162.3713 C.3     1  UNL1        0.0193
      3 C         142.4684  138.2768  162.6983 C.3     1  UNL1        0.0286
      4 C         142.1555  137.9481  164.1280 C.3     1  UNL1        0.0932
      5 C         142.9938  138.5238  165.2307 C.3     1  UNL1        0.0286
      6 C         144.1448  139.4284  164.9036 C.3     1  UNL1        0.0193
      7 O         142.7964  138.4484  163.9980 O.3     1  UNL1       -0.3572
      8 C         143.8372  139.2663  163.7023 C.3     1  UNL1        0.1562
      9 N         145.6087  140.6616  163.1469 N.3     1  UNL1       -0.2926
     10 H         146.4309  140.2693  163.6057 H       1  UNL1        0.1236
     11 C         145.5532  142.1124  163.5240 C.3     1  UNL1        0.1152
     12 O         140.5154  145.6571  158.7485 O.2     1  UNL1       -0.2707
     13 C         140.9309  145.2565  160.1330 C.2     1  UNL1        0.2718
     14 C         140.0827  145.6369  161.3101 C.3     1  UNL1        0.2898
     15 O         140.4983  145.2364  162.6947 O.3     1  UNL1       -0.4628
     16 C         141.7620  144.4554  162.9020 C.ar    1  UNL1        0.1708
     17 C         142.1775  144.0548  164.2865 C.ar    1  UNL1        0.0411
     18 C         143.4412  143.2739  164.4939 C.ar    1  UNL1        0.0193
     19 C         144.2895  142.8934  163.3167 C.ar    1  UNL1        0.0765
     20 N         143.8739  143.2939  161.9322 N.ar    1  UNL1       -0.2304
     21 C         142.6102  144.0750  161.7248 C.ar    1  UNL1        0.1682
     22 N         142.1946  144.4755  160.3403 N.am    1  UNL1       -0.2639
     23 H         142.7514  144.2258  159.5677 H       1  UNL1        0.1565
     24 C         141.0045  137.0436  164.4551 C.3     1  UNL1        0.0319
     25 C         139.6605  137.6266  164.7770 C.3     1  UNL1        0.0304
     26 C         138.9769  138.5256  163.7898 C.ar    1  UNL1       -0.0014
     27 C         138.4207  137.9573  162.5179 C.ar    1  UNL1        0.0179
     28 C         137.7372  138.8563  161.5307 C.ar    1  UNL1        0.0986
     29 N         137.6098  140.3235  161.8154 N.ar    1  UNL1       -0.2423
     30 C         138.1659  140.8917  163.0873 C.ar    1  UNL1        0.1009
     31 C         138.0385  142.3590  163.3720 C.ar    1  UNL1        0.0518
     32 C         138.5947  142.9272  164.6440 C.ar    1  UNL1        0.1607
     33 F         138.4673  144.3944  164.9287 F       1  UNL1       -0.2025
     34 C         139.2783  142.0282  165.6312 C.ar    1  UNL1        0.1284
     35 N         139.4057  140.5610  165.3465 N.ar    1  UNL1       -0.2403
     36 C         138.8495  139.9928  164.0746 C.ar    1  UNL1        0.0951
@<TRIPOS>BOND
     1    12    13    2
     2    13    14    1
     3    14    15    1
     4    15    16    1
     5    16    17   ar
     6    17    18   ar
     7    18    19   ar
     8    19    11    1
     9    11     9    1
    10     9     1    1
    11     1     2    1
    12     2     3    1
    13     3     4    1
    14     4    24    1
    15    24    25    1
    16    25    26    1
    17    26    27   ar
    18    27    28   ar
    19    28    29   ar
    20    29    30   ar
    21    30    31   ar
    22    31    32   ar
    23    32    33    1
    24    32    34   ar
    25    34    35   ar
    26    35    36   ar
    27     4     5    1
    28     5     6    1
    29     4     7    1
    30     7     8    1
    31    19    20   ar
    32    20    21   ar
    33    21    22    1
    34    22    13   am
    35    21    16   ar
    36     6     1    1
    37     8     1    1
    38    36    26   ar
    39    36    30   ar
    40     9    10    1
    41    22    23    1
@<TRIPOS>MOLECULE
*****
 36 41 0 0 0
SMALL
GASTEIGER

@<TRIPOS>ATOM
      1 C         141.3316  137.5400  162.4323 C.3     1  UNL1        0.0700
      2 C         141.7552  137.3420  163.8575 C.3     1  UNL1        0.0193
      3 C         140.7742  137.5669  164.9697 C.3     1  UNL1        0.0286
      4 C         139.3695  137.9899  164.6567 C.3     1  UNL1        0.0932
      5 C         138.9459  138.1880  163.2314 C.3     1  UNL1        0.0286
      6 C         139.9269  137.9630  162.1192 C.3     1  UNL1        0.0193
      7 O         139.8715  137.8787  164.0136 O.3     1  UNL1       -0.3572
      8 C         140.7585  137.6753  163.0079 C.3     1  UNL1        0.1562
      9 N         142.3125  137.3150  161.3201 N.3     1  UNL1       -0.2926
     10 H         142.6362  136.3513  161.4034 H       1  UNL1        0.1236
     11 C         143.5368  138.1754  161.2143 C.3     1  UNL1        0.1152
     12 O         145.0021  144.0796  166.0870 O.2     1  UNL1       -0.2707
     13 C         144.4347  143.5723  164.7945 C.2     1  UNL1        0.2718
     14 C         143.7883  144.5256  163.8336 C.3     1  UNL1        0.2898
     15 O         143.2209  144.0183  162.5411 O.3     1  UNL1       -0.4628
     16 C         143.2999  142.5576  162.2094 C.ar    1  UNL1        0.1708
     17 C         142.7325  142.0503  160.9168 C.ar    1  UNL1        0.0411
     18 C         142.8114  140.5896  160.5851 C.ar    1  UNL1        0.0193
     19 C         143.4578  139.6361  161.5460 C.ar    1  UNL1        0.0765
     20 N         144.0252  140.1434  162.8385 N.ar    1  UNL1       -0.2304
     21 C         143.9462  141.6042  163.1702 C.ar    1  UNL1        0.1682
     22 N         144.5136  142.1116  164.4628 N.am    1  UNL1       -0.2639
     23 H         144.9378  141.4858  165.0934 H       1  UNL1        0.1565
     24 C         138.3885  138.2149  165.7689 C.3     1  UNL1        0.0319
     25 C         138.2116  139.5878  166.3467 C.3     1  UNL1        0.0304
     26 C         139.2528  140.6412  166.1096 C.ar    1  UNL1       -0.0014
     27 C         139.1599  141.5299  164.9047 C.ar    1  UNL1        0.0179
     28 C         140.2011  142.5833  164.6676 C.ar    1  UNL1        0.0986
     29 N         141.3353  142.7480  165.6353 N.ar    1  UNL1       -0.2423
     30 C         141.4282  141.8594  166.8401 C.ar    1  UNL1        0.1009
     31 C         142.5624  142.0241  167.8079 C.ar    1  UNL1        0.0518
     32 C         142.6554  141.1354  169.0127 C.ar    1  UNL1        0.1607
     33 F         143.7895  141.3001  169.9805 F       1  UNL1       -0.2025
     34 C         141.6142  140.0820  169.2498 C.ar    1  UNL1        0.1284
     35 N         140.4800  139.9173  168.2821 N.ar    1  UNL1       -0.2403
     36 C         140.3870  140.8059  167.0773 C.ar    1  UNL1        0.0951
@<TRIPOS>BOND
     1    12    13    2
     2    13    14    1
     3    14    15    1
     4    15    16    1
     5    16    17   ar
     6    17    18   ar
     7    18    19   ar
     8    19    11    1
     9    11     9    1
    10     9     1    1
    11     1     2    1
    12     2     3    1
    13     3     4    1
    14     4    24    1
    15    24    25    1
    16    25    26    1
    17    26    27   ar
    18    27    28   ar
    19    28    29   ar
    20    29    30   ar
    21    30    31   ar
    22    31    32   ar
    23    32    33    1
    24    32    34   ar
    25    34    35   ar
    26    35    36   ar
    27     4     5    1
    28     5     6    1
    29     4     7    1
    30     7     8    1
    31    19    20   ar
    32    20    21   ar
    33    21    22    1
    34    22    13   am
    35    21    16   ar
    36     6     1    1
    37     8     1    1
    38    36    26   ar
    39    36    30   ar
    40     9    10    1
    41    22    23    1
@<TRIPOS>MOLECULE
*****
 36 41 0 0 0
SMALL
GASTEIGER

@<TRIPOS>ATOM
      1 C         141.5759  137.6511  162.2362 C.3     1  UNL1        0.0700
      2 C         141.9877  137.4763  163.6680 C.3     1  UNL1        0.0193
      3 C         140.9721  137.6167  164.7629 C.3     1  UNL1        0.0286
      4 C         139.5447  137.9319  164.4261 C.3     1  UNL1        0.0932
      5 C         139.1330  138.1067  162.9943 C.3     1  UNL1        0.0286
      6 C         140.1487  137.9663  161.8994 C.3     1  UNL1        0.0193
      7 O         140.0655  137.8645  163.7919 O.3     1  UNL1       -0.3572
      8 C         140.9838  137.7375  162.8018 C.3     1  UNL1        0.1562
      9 N         142.5915  137.5106  161.1413 N.3     1  UNL1       -0.2926
     10 H         143.0177  136.5905  161.2513 H       1  UNL1        0.1236
     11 C         143.7154  138.4978  161.0296 C.3     1  UNL1        0.1152
     12 O         145.2414  144.1690  166.1540 O.2     1  UNL1       -0.2707
     13 C         144.5411  143.6897  164.9171 C.2     1  UNL1        0.2718
     14 C         143.6492  144.6215  164.1515 C.3     1  UNL1        0.2898
     15 O         142.9490  144.1422  162.9146 O.3     1  UNL1       -0.4628
     16 C         143.1406  142.7311  162.4433 C.ar    1  UNL1        0.1708
     17 C         142.4403  142.2518  161.2064 C.ar    1  UNL1        0.0411
     18 C         142.6319  140.8408  160.7352 C.ar    1  UNL1        0.0193
     19 C         143.5238  139.9089  161.5009 C.ar    1  UNL1        0.0765
     20 N         144.2241  140.3882  162.7378 N.ar    1  UNL1       -0.2304
     21 C         144.0324  141.7993  163.2090 C.ar    1  UNL1        0.1682
     22 N         144.7327  142.2786  164.4459 N.am    1  UNL1       -0.2639
     23 H         145.3181  141.6670  164.9484 H       1  UNL1        0.1565
     24 C         138.5292  138.0724  165.5210 C.3     1  UNL1        0.0319
     25 C         138.1000  139.4359  165.9755 C.3     1  UNL1        0.0304
     26 C         139.1038  140.5469  166.0656 C.ar    1  UNL1       -0.0014
     27 C         140.2358  140.4572  167.0457 C.ar    1  UNL1        0.0179
     28 C         141.2396  141.5682  167.1358 C.ar    1  UNL1        0.0986
     29 N         141.1114  142.7688  166.2459 N.ar    1  UNL1       -0.2423
     30 C         139.9794  142.8585  165.2659 C.ar    1  UNL1        0.1009
     31 C         139.8512  144.0592  164.3759 C.ar    1  UNL1        0.0518
     32 C         138.7191  144.1489  163.3959 C.ar    1  UNL1        0.1607
     33 F         138.5909  145.3495  162.5059 F       1  UNL1       -0.2025
     34 C         137.7153  143.0379  163.3058 C.ar    1  UNL1        0.1284
     35 N         137.8436  141.8372  164.1957 N.ar    1  UNL1       -0.2403
     36 C         138.9756  141.7475  165.1757 C.ar    1  UNL1        0.0951
@<TRIPOS>BOND
     1    12    13    2
     2    13    14    1
     3    14    15    1
     4    15    16    1
     5    16    17   ar
     6    17    18   ar
     7    18    19   ar
     8    19    11    1
     9    11     9    1
    10     9     1    1
    11     1     2    1
    12     2     3    1
    13     3     4    1
    14     4    24    1
    15    24    25    1
    16    25    26    1
    17    26    27   ar
    18    27    28   ar
    19    28    29   ar
    20    29    30   ar
    21    30    31   ar
    22    31    32   ar
    23    32    33    1
    24    32    34   ar
    25    34    35   ar
    26    35    36   ar
    27     4     5    1
    28     5     6    1
    29     4     7    1
    30     7     8    1
    31    19    20   ar
    32    20    21   ar
    33    21    22    1
    34    22    13   am
    35    21    16   ar
    36     6     1    1
    37     8     1    1
    38    36    26   ar
    39    36    30   ar
    40     9    10    1
    41    22    23    1
@<TRIPOS>MOLECULE
*****
 36 41 0 0 0
SMALL
GASTEIGER

@<TRIPOS>ATOM
      1 C         144.1612  139.8368  163.2879 C.3     1  UNL1        0.0700
      2 C         142.9762  139.6818  162.3815 C.3     1  UNL1        0.0193
      3 C         141.7837  138.8927  162.8343 C.3     1  UNL1        0.0286
      4 C         141.7761  138.2585  164.1937 C.3     1  UNL1        0.0932
      5 C         142.9611  138.4135  165.1002 C.3     1  UNL1        0.0286
      6 C         144.1537  139.2027  164.6473 C.3     1  UNL1        0.0193
      7 O         142.4524  138.6816  163.9896 O.3     1  UNL1       -0.3572
      8 C         143.5307  139.3951  163.5801 C.3     1  UNL1        0.1562
      9 N         145.3537  140.6260  162.8351 N.3     1  UNL1       -0.2926
     10 H         146.1752  140.1761  163.2392 H       1  UNL1        0.1236
     11 C         145.4549  142.0864  163.1622 C.3     1  UNL1        0.1152
     12 O         140.0297  145.8819  159.0498 O.2     1  UNL1       -0.2707
     13 C         140.6142  145.4826  160.3722 C.2     1  UNL1        0.2718
     14 C         139.9750  145.9494  161.6464 C.3     1  UNL1        0.2898
     15 O         140.5595  145.5502  162.9688 O.3     1  UNL1       -0.4628
     16 C         141.7834  144.6842  163.0172 C.ar    1  UNL1        0.1708
     17 C         142.3679  144.2850  164.3397 C.ar    1  UNL1        0.0411
     18 C         143.5917  143.4191  164.3880 C.ar    1  UNL1        0.0193
     19 C         144.2311  142.9523  163.1138 C.ar    1  UNL1        0.0765
     20 N         143.6465  143.3515  161.7913 N.ar    1  UNL1       -0.2304
     21 C         142.4226  144.2175  161.7431 C.ar    1  UNL1        0.1682
     22 N         141.8381  144.6167  160.4206 N.am    1  UNL1       -0.2639
     23 H         142.2577  144.3104  159.5843 H       1  UNL1        0.1565
     24 C         140.5836  137.4694  164.6465 C.3     1  UNL1        0.0319
     25 C         139.4900  138.1417  165.4225 C.3     1  UNL1        0.0304
     26 C         139.6491  139.5671  165.8617 C.ar    1  UNL1       -0.0014
     27 C         140.3831  139.8833  167.1311 C.ar    1  UNL1        0.0179
     28 C         140.5422  141.3087  167.5702 C.ar    1  UNL1        0.0986
     29 N         139.9674  142.4179  166.7400 N.ar    1  UNL1       -0.2423
     30 C         139.2335  142.1017  165.4706 C.ar    1  UNL1        0.1009
     31 C         138.6587  143.2109  164.6404 C.ar    1  UNL1        0.0518
     32 C         137.9247  142.8946  163.3709 C.ar    1  UNL1        0.1607
     33 F         137.3499  144.0038  162.5407 F       1  UNL1       -0.2025
     34 C         137.7656  141.4692  162.9318 C.ar    1  UNL1        0.1284
     35 N         138.3404  140.3600  163.7621 N.ar    1  UNL1       -0.2403
     36 C         139.0743  140.6762  165.0314 C.ar    1  UNL1        0.0951
@<TRIPOS>BOND
     1    12    13    2
     2    13    14    1
     3    14    15    1
     4    15    16    1
     5    16    17   ar
     6    17    18   ar
     7    18    19   ar
     8    19    11    1
     9    11     9    1
    10     9     1    1
    11     1     2    1
    12     2     3    1
    13     3     4    1
    14     4    24    1
    15    24    25    1
    16    25    26    1
    17    26    27   ar
    18    27    28   ar
    19    28    29   ar
    20    29    30   ar
    21    30    31   ar
    22    31    32   ar
    23    32    33    1
    24    32    34   ar
    25    34    35   ar
    26    35    36   ar
    27     4     5    1
    28     5     6    1
    29     4     7    1
    30     7     8    1
    31    19    20   ar
    32    20    21   ar
    33    21    22    1
    34    22    13   am
    35    21    16   ar
    36     6     1    1
    37     8     1    1
    38    36    26   ar
    39    36    30   ar
    40     9    10    1
    41    22    23    1
@<TRIPOS>MOLECULE
*****
 36 41 0 0 0
SMALL
GASTEIGER

@<TRIPOS>ATOM
      1 C         144.3346  139.6626  163.4117 C.3     1  UNL1        0.0700
      2 C         144.1622  139.2320  164.8382 C.3     1  UNL1        0.0193
      3 C         142.9459  138.4544  165.2452 C.3     1  UNL1        0.0286
      4 C         141.9017  138.1073  164.2256 C.3     1  UNL1        0.0932
      5 C         142.0741  138.5379  162.7991 C.3     1  UNL1        0.0286
      6 C         143.2905  139.3156  162.3922 C.3     1  UNL1        0.0193
      7 O         142.5513  138.5350  163.9551 O.3     1  UNL1       -0.3572
      8 C         143.6512  139.2382  163.5871 C.3     1  UNL1        0.1562
      9 N         145.5509  140.4403  163.0047 N.3     1  UNL1       -0.2926
     10 H         146.3472  140.0080  163.4733 H       1  UNL1        0.1236
     11 C         145.6293  141.9116  163.2861 C.3     1  UNL1        0.1152
     12 O         140.4152  145.6411  158.8529 O.2     1  UNL1       -0.2707
     13 C         140.9258  145.2513  160.2084 C.2     1  UNL1        0.2718
     14 C         140.2089  145.7150  161.4417 C.3     1  UNL1        0.2898
     15 O         140.7195  145.3253  162.7972 O.3     1  UNL1       -0.4628
     16 C         141.9469  144.4719  162.9195 C.ar    1  UNL1        0.1708
     17 C         142.4575  144.0822  164.2750 C.ar    1  UNL1        0.0411
     18 C         143.6850  143.2288  164.3972 C.ar    1  UNL1        0.0193
     19 C         144.4019  142.7650  163.1639 C.ar    1  UNL1        0.0765
     20 N         143.8913  143.1547  161.8084 N.ar    1  UNL1       -0.2304
     21 C         142.6638  144.0082  161.6862 C.ar    1  UNL1        0.1682
     22 N         142.1532  144.3979  160.3307 N.am    1  UNL1       -0.2639
     23 H         142.6237  144.0936  159.5212 H       1  UNL1        0.1565
     24 C         140.6854  137.3297  164.6326 C.3     1  UNL1        0.0319
     25 C         139.4890  138.0446  165.1872 C.3     1  UNL1        0.0304
     26 C         139.3452  139.5254  164.9965 C.ar    1  UNL1       -0.0014
     27 C         138.7025  140.0624  163.7520 C.ar    1  UNL1        0.0179
     28 C         138.5587  141.5433  163.5614 C.ar    1  UNL1        0.0986
     29 N         139.0574  142.4871  164.6151 N.ar    1  UNL1       -0.2423
     30 C         139.7000  141.9501  165.8596 C.ar    1  UNL1        0.1009
     31 C         140.1987  142.8940  166.9133 C.ar    1  UNL1        0.0518
     32 C         140.8414  142.3569  168.1578 C.ar    1  UNL1        0.1607
     33 F         141.3401  143.3008  169.2116 F       1  UNL1       -0.2025
     34 C         140.9852  140.8761  168.3485 C.ar    1  UNL1        0.1284
     35 N         140.4865  139.9322  167.2947 N.ar    1  UNL1       -0.2403
     36 C         139.8439  140.4692  166.0503 C.ar    1  UNL1        0.0951
@<TRIPOS>BOND
     1    12    13    2
     2    13    14    1
     3    14    15    1
     4    15    16    1
     5    16    17   ar
     6    17    18   ar
     7    18    19   ar
     8    19    11    1
     9    11     9    1
    10     9     1    1
    11     1     2    1
    12     2     3    1
    13     3     4    1
    14     4    24    1
    15    24    25    1
    16    25    26    1
    17    26    27   ar
    18    27    28   ar
    19    28    29   ar
    20    29    30   ar
    21    30    31   ar
    22    31    32   ar
    23    32    33    1
    24    32    34   ar
    25    34    35   ar
    26    35    36   ar
    27     4     5    1
    28     5     6    1
    29     4     7    1
    30     7     8    1
    31    19    20   ar
    32    20    21   ar
    33    21    22    1
    34    22    13   am
    35    21    16   ar
    36     6     1    1
    37     8     1    1
    38    36    26   ar
    39    36    30   ar
    40     9    10    1
    41    22    23    1
@<TRIPOS>MOLECULE
*****
 36 41 0 0 0
SMALL
GASTEIGER

@<TRIPOS>ATOM
      1 C         143.4793  143.9644  162.3175 C.3     1  UNL1        0.0700
      2 C         143.1055  144.5716  163.6371 C.3     1  UNL1        0.0193
      3 C         141.7025  145.0469  163.8735 C.3     1  UNL1        0.0286
      4 C         140.6734  144.9149  162.7902 C.3     1  UNL1        0.0932
      5 C         141.0472  144.3076  161.4706 C.3     1  UNL1        0.0286
      6 C         142.4502  143.8323  161.2342 C.3     1  UNL1        0.0193
      7 O         141.4293  144.6402  162.6140 O.3     1  UNL1       -0.3572
      8 C         142.6979  144.2104  162.4003 C.3     1  UNL1        0.1562
      9 N         144.8822  143.4891  162.0812 N.3     1  UNL1       -0.2926
     10 H         145.2413  144.0158  161.2849 H       1  UNL1        0.1236
     11 C         145.1452  142.0401  161.7959 C.3     1  UNL1        0.1152
     12 O         139.0562  137.3203  162.9785 O.2     1  UNL1       -0.2707
     13 C         140.4025  137.8333  163.3960 C.2     1  UNL1        0.2718
     14 C         141.0654  137.2861  164.6252 C.3     1  UNL1        0.2898
     15 O         142.4117  137.7991  165.0427 O.3     1  UNL1       -0.4628
     16 C         143.0951  138.8593  164.2311 C.ar    1  UNL1        0.1708
     17 C         144.4414  139.3723  164.6486 C.ar    1  UNL1        0.0411
     18 C         145.1248  140.4326  163.8369 C.ar    1  UNL1        0.0193
     19 C         144.4618  140.9798  162.6076 C.ar    1  UNL1        0.0765
     20 N         143.1155  140.4668  162.1901 N.ar    1  UNL1       -0.2304
     21 C         142.4322  139.4066  163.0018 C.ar    1  UNL1        0.1682
     22 N         141.0859  138.8936  162.5843 N.am    1  UNL1       -0.2639
     23 H         140.6508  139.2527  161.7775 H       1  UNL1        0.1565
     24 C         139.2705  145.3902  163.0265 C.3     1  UNL1        0.0319
     25 C         138.4083  144.7057  164.0455 C.3     1  UNL1        0.0304
     26 C         138.3509  143.2077  164.0946 C.ar    1  UNL1       -0.0014
     27 C         137.5734  142.4524  163.0577 C.ar    1  UNL1        0.0179
     28 C         137.5160  140.9544  163.1069 C.ar    1  UNL1        0.0986
     29 N         138.2360  140.2114  164.1929 N.ar    1  UNL1       -0.2423
     30 C         139.0135  140.9666  165.2298 C.ar    1  UNL1        0.1009
     31 C         139.7336  140.2236  166.3159 C.ar    1  UNL1        0.0518
     32 C         140.5112  140.9789  167.3528 C.ar    1  UNL1        0.1607
     33 F         141.2313  140.2359  168.4389 F       1  UNL1       -0.2025
     34 C         140.5686  142.4769  167.3037 C.ar    1  UNL1        0.1284
     35 N         139.8485  143.2199  166.2176 N.ar    1  UNL1       -0.2403
     36 C         139.0710  142.4647  165.1807 C.ar    1  UNL1        0.0951
@<TRIPOS>BOND
     1    12    13    2
     2    13    14    1
     3    14    15    1
     4    15    16    1
     5    16    17   ar
     6    17    18   ar
     7    18    19   ar
     8    19    11    1
     9    11     9    1
    10     9     1    1
    11     1     2    1
    12     2     3    1
    13     3     4    1
    14     4    24    1
    15    24    25    1
    16    25    26    1
    17    26    27   ar
    18    27    28   ar
    19    28    29   ar
    20    29    30   ar
    21    30    31   ar
    22    31    32   ar
    23    32    33    1
    24    32    34   ar
    25    34    35   ar
    26    35    36   ar
    27     4     5    1
    28     5     6    1
    29     4     7    1
    30     7     8    1
    31    19    20   ar
    32    20    21   ar
    33    21    22    1
    34    22    13   am
    35    21    16   ar
    36     6     1    1
    37     8     1    1
    38    36    26   ar
    39    36    30   ar
    40     9    10    1
    41    22    23    1
@<TRIPOS>MOLECULE
*****
 36 41 0 0 0
SMALL
GASTEIGER

@<TRIPOS>ATOM
      1 C         138.0428  141.5175  164.1646 C.3     1  UNL1        0.0700
      2 C         138.5036  142.6799  164.9931 C.3     1  UNL1        0.0193
      3 C         138.7572  144.0089  164.3454 C.3     1  UNL1        0.0286
      4 C         138.5499  144.1755  162.8691 C.3     1  UNL1        0.0932
      5 C         138.0891  143.0130  162.0406 C.3     1  UNL1        0.0286
      6 C         137.8356  141.6840  162.6883 C.3     1  UNL1        0.0193
      7 O         138.3980  143.4280  163.1792 O.3     1  UNL1       -0.3572
      8 C         138.1688  142.2263  163.7649 C.3     1  UNL1        0.1562
      9 N         137.7893  140.1886  164.8123 N.3     1  UNL1       -0.2926
     10 H         137.4083  140.3805  165.7388 H       1  UNL1        0.1236
     11 C         138.9179  139.2185  165.0005 C.3     1  UNL1        0.1152
     12 O         140.7773  141.8775  172.0873 O.2     1  UNL1       -0.2707
     13 C         141.1804  141.2292  170.7960 C.2     1  UNL1        0.2718
     14 C         142.6062  140.8188  170.5758 C.3     1  UNL1        0.2898
     15 O         143.0092  140.1705  169.2846 O.3     1  UNL1       -0.4628
     16 C         141.9864  139.9325  168.2136 C.ar    1  UNL1        0.1708
     17 C         142.3895  139.2842  166.9224 C.ar    1  UNL1        0.0411
     18 C         141.3666  139.0462  165.8514 C.ar    1  UNL1        0.0193
     19 C         139.9407  139.4565  166.0715 C.ar    1  UNL1        0.0765
     20 N         139.5376  140.1048  167.3628 N.ar    1  UNL1       -0.2304
     21 C         140.5606  140.3428  168.4338 C.ar    1  UNL1        0.1682
     22 N         140.1575  140.9911  169.7250 N.am    1  UNL1       -0.2639
     23 H         139.2217  141.2604  169.8695 H       1  UNL1        0.1565
     24 C         138.8034  145.5044  162.2214 C.3     1  UNL1        0.0319
     25 C         140.2102  145.9842  162.0195 C.3     1  UNL1        0.0304
     26 C         141.2074  145.1102  161.3183 C.ar    1  UNL1       -0.0014
     27 C         141.1127  144.9046  159.8354 C.ar    1  UNL1        0.0179
     28 C         142.1098  144.0306  159.1342 C.ar    1  UNL1        0.0986
     29 N         143.2017  143.3621  159.9157 N.ar    1  UNL1       -0.2423
     30 C         143.2964  143.5676  161.3985 C.ar    1  UNL1        0.1009
     31 C         144.3883  142.8991  162.1801 C.ar    1  UNL1        0.0518
     32 C         144.4830  143.1046  163.6630 C.ar    1  UNL1        0.1607
     33 F         145.5749  142.4361  164.4446 F       1  UNL1       -0.2025
     34 C         143.4859  143.9786  164.3642 C.ar    1  UNL1        0.1284
     35 N         142.3940  144.6471  163.5826 N.ar    1  UNL1       -0.2403
     36 C         142.2993  144.4417  162.0998 C.ar    1  UNL1        0.0951
@<TRIPOS>BOND
     1    12    13    2
     2    13    14    1
     3    14    15    1
     4    15    16    1
     5    16    17   ar
     6    17    18   ar
     7    18    19   ar
     8    19    11    1
     9    11     9    1
    10     9     1    1
    11     1     2    1
    12     2     3    1
    13     3     4    1
    14     4    24    1
    15    24    25    1
    16    25    26    1
    17    26    27   ar
    18    27    28   ar
    19    28    29   ar
    20    29    30   ar
    21    30    31   ar
    22    31    32   ar
    23    32    33    1
    24    32    34   ar
    25    34    35   ar
    26    35    36   ar
    27     4     5    1
    28     5     6    1
    29     4     7    1
    30     7     8    1
    31    19    20   ar
    32    20    21   ar
    33    21    22    1
    34    22    13   am
    35    21    16   ar
    36     6     1    1
    37     8     1    1
    38    36    26   ar
    39    36    30   ar
    40     9    10    1
    41    22    23    1
@<TRIPOS>MOLECULE
*****
 36 41 0 0 0
SMALL
GASTEIGER

@<TRIPOS>ATOM
      1 C         137.9193  142.8693  162.9950 C.3     1  UNL1        0.0700
      2 C         138.0438  141.7475  162.0070 C.3     1  UNL1        0.0193
      3 C         138.2698  140.3452  162.4890 C.3     1  UNL1        0.0286
      4 C         138.3715  140.0646  163.9591 C.3     1  UNL1        0.0932
      5 C         138.2470  141.1864  164.9471 C.3     1  UNL1        0.0286
      6 C         138.0209  142.5888  164.4650 C.3     1  UNL1        0.0193
      7 O         138.2472  140.8493  163.7427 O.3     1  UNL1       -0.3572
      8 C         138.0427  142.1173  163.3069 C.3     1  UNL1        0.1562
      9 N         137.6932  144.2716  162.5130 N.3     1  UNL1       -0.2926
     10 H         137.3970  144.2041  161.5393 H       1  UNL1        0.1236
     11 C         138.8125  145.2694  162.5569 C.3     1  UNL1        0.1152
     12 O         144.3266  141.6684  158.3884 O.2     1  UNL1       -0.2707
     13 C         143.9084  142.4104  159.6230 C.2     1  UNL1        0.2718
     14 C         144.9101  142.6942  160.7029 C.3     1  UNL1        0.2898
     15 O         144.4919  143.4362  161.9376 O.3     1  UNL1       -0.4628
     16 C         143.0720  143.8945  162.0924 C.ar    1  UNL1        0.1708
     17 C         142.6538  144.6366  163.3271 C.ar    1  UNL1        0.0411
     18 C         141.2340  145.0949  163.4820 C.ar    1  UNL1        0.0193
     19 C         140.2323  144.8111  162.4021 C.ar    1  UNL1        0.0765
     20 N         140.6505  144.0691  161.1674 N.ar    1  UNL1       -0.2304
     21 C         142.0704  143.6108  161.0126 C.ar    1  UNL1        0.1682
     22 N         142.4886  142.8687  159.7779 N.am    1  UNL1       -0.2639
     23 H         141.8312  142.6825  159.0691 H       1  UNL1        0.1565
     24 C         138.5975  138.6623  164.4411 C.3     1  UNL1        0.0319
     25 C         139.9026  138.2901  165.0800 C.3     1  UNL1        0.0304
     26 C         141.1952  138.6412  164.4049 C.ar    1  UNL1       -0.0014
     27 C         141.6911  137.8128  163.2568 C.ar    1  UNL1        0.0179
     28 C         142.9837  138.1640  162.5818 C.ar    1  UNL1        0.0986
     29 N         143.7806  139.3435  163.0548 N.ar    1  UNL1       -0.2423
     30 C         143.2848  140.1719  164.2028 C.ar    1  UNL1        0.1009
     31 C         144.0817  141.3514  164.6758 C.ar    1  UNL1        0.0518
     32 C         143.5859  142.1798  165.8238 C.ar    1  UNL1        0.1607
     33 F         144.3828  143.3593  166.2968 F       1  UNL1       -0.2025
     34 C         142.2932  141.8286  166.4989 C.ar    1  UNL1        0.1284
     35 N         141.4964  140.6491  166.0259 N.ar    1  UNL1       -0.2403
     36 C         141.9921  139.8207  164.8779 C.ar    1  UNL1        0.0951
@<TRIPOS>BOND
     1    12    13    2
     2    13    14    1
     3    14    15    1
     4    15    16    1
     5    16    17   ar
     6    17    18   ar
     7    18    19   ar
     8    19    11    1
     9    11     9    1
    10     9     1    1
    11     1     2    1
    12     2     3    1
    13     3     4    1
    14     4    24    1
    15    24    25    1
    16    25    26    1
    17    26    27   ar
    18    27    28   ar
    19    28    29   ar
    20    29    30   ar
    21    30    31   ar
    22    31    32   ar
    23    32    33    1
    24    32    34   ar
    25    34    35   ar
    26    35    36   ar
    27     4     5    1
    28     5     6    1
    29     4     7    1
    30     7     8    1
    31    19    20   ar
    32    20    21   ar
    33    21    22    1
    34    22    13   am
    35    21    16   ar
    36     6     1    1
    37     8     1    1
    38    36    26   ar
    39    36    30   ar
    40     9    10    1
    41    22    23    1
@<TRIPOS>MOLECULE
*****
 36 41 0 0 0
SMALL
GASTEIGER

@<TRIPOS>ATOM
      1 C         144.9741  140.8996  163.0438 C.3     1  UNL1        0.0700
      2 C         144.5143  139.6074  163.6511 C.3     1  UNL1        0.0193
      3 C         143.6195  138.6893  162.8725 C.3     1  UNL1        0.0286
      4 C         143.1844  139.0633  161.4865 C.3     1  UNL1        0.0932
      5 C         143.6442  140.3555  160.8792 C.3     1  UNL1        0.0286
      6 C         144.5391  141.2737  161.6579 C.3     1  UNL1        0.0193
      7 O         143.6752  139.5987  161.8744 O.3     1  UNL1       -0.3572
      8 C         144.4843  140.4289  162.5784 C.3     1  UNL1        0.1562
      9 N         145.8689  141.8178  163.8224 N.3     1  UNL1       -0.2926
     10 H         146.4478  141.2278  164.4200 H       1  UNL1        0.1236
     11 C         145.2738  142.8755  164.7039 C.3     1  UNL1        0.1152
     12 O         139.3264  146.5732  161.2826 O.2     1  UNL1       -0.2707
     13 C         139.8425  145.6461  162.3428 C.2     1  UNL1        0.2718
     14 C         138.8922  145.0244  163.3228 C.3     1  UNL1        0.2898
     15 O         139.4083  144.0973  164.3831 O.3     1  UNL1       -0.4628
     16 C         140.8746  143.7919  164.4633 C.ar    1  UNL1        0.1708
     17 C         141.3907  142.8647  165.5235 C.ar    1  UNL1        0.0411
     18 C         142.8571  142.5593  165.6038 C.ar    1  UNL1        0.0193
     19 C         143.8074  143.1810  164.6237 C.ar    1  UNL1        0.0765
     20 N         143.2913  144.1081  163.5635 N.ar    1  UNL1       -0.2304
     21 C         141.8249  144.4135  163.4833 C.ar    1  UNL1        0.1682
     22 N         141.3088  145.3406  162.4230 N.am    1  UNL1       -0.2639
     23 H         141.9325  145.7487  161.7798 H       1  UNL1        0.1565
     24 C         142.2896  138.1451  160.7079 C.3     1  UNL1        0.0319
     25 C         140.8518  137.9852  161.1041 C.3     1  UNL1        0.0304
     26 C         140.0869  139.1582  161.6416 C.ar    1  UNL1       -0.0014
     27 C         139.9252  140.3942  160.8071 C.ar    1  UNL1        0.0179
     28 C         139.1604  141.5672  161.3446 C.ar    1  UNL1        0.0986
     29 N         138.5572  141.5044  162.7166 N.ar    1  UNL1       -0.2423
     30 C         138.7189  140.2685  163.5510 C.ar    1  UNL1        0.1009
     31 C         138.1158  140.2057  164.9230 C.ar    1  UNL1        0.0518
     32 C         138.2775  138.9697  165.7575 C.ar    1  UNL1        0.1607
     33 F         137.6744  138.9069  167.1294 F       1  UNL1       -0.2025
     34 C         139.0423  137.7966  165.2200 C.ar    1  UNL1        0.1284
     35 N         139.6455  137.8595  163.8480 N.ar    1  UNL1       -0.2403
     36 C         139.4838  139.0954  163.0135 C.ar    1  UNL1        0.0951
@<TRIPOS>BOND
     1    12    13    2
     2    13    14    1
     3    14    15    1
     4    15    16    1
     5    16    17   ar
     6    17    18   ar
     7    18    19   ar
     8    19    11    1
     9    11     9    1
    10     9     1    1
    11     1     2    1
    12     2     3    1
    13     3     4    1
    14     4    24    1
    15    24    25    1
    16    25    26    1
    17    26    27   ar
    18    27    28   ar
    19    28    29   ar
    20    29    30   ar
    21    30    31   ar
    22    31    32   ar
    23    32    33    1
    24    32    34   ar
    25    34    35   ar
    26    35    36   ar
    27     4     5    1
    28     5     6    1
    29     4     7    1
    30     7     8    1
    31    19    20   ar
    32    20    21   ar
    33    21    22    1
    34    22    13   am
    35    21    16   ar
    36     6     1    1
    37     8     1    1
    38    36    26   ar
    39    36    30   ar
    40     9    10    1
    41    22    23    1
