@<TRIPOS>MOLECULE
*****
 34 38 0 0 0
SMALL
GASTEIGER

@<TRIPOS>ATOM
      1 C         140.2310  142.9144  166.0206 C.ar    1  UNL1        0.0170
      2 C         139.2523  144.0509  166.0410 C.ar    1  UNL1        0.0011
      3 C         139.0791  144.9134  164.8260 C.ar    1  UNL1       -0.0045
      4 C         139.8846  144.6393  163.5906 C.ar    1  UNL1       -0.0247
      5 C         140.8632  143.5028  163.5703 C.ar    1  UNL1       -0.0246
      6 C         141.0365  142.6403  164.7852 C.ar    1  UNL1       -0.0030
      7 C         141.7589  143.0597  162.4515 C.3     1  UNL1        0.0433
      8 C         141.8970  143.6438  161.0768 C.3     1  UNL1        0.0768
      9 N         141.1736  144.8152  160.4814 N.3     1  UNL1       -0.2720
     10 C         140.1335  145.6918  161.1136 C.3     1  UNL1        0.0768
     11 C         139.5598  145.6135  162.4973 C.3     1  UNL1        0.0433
     12 C         141.6155  141.2358  170.8316 C.3     1  UNL1        0.0540
     13 C         141.0405  141.2803  169.4470 C.ar    1  UNL1        0.0804
     14 C         141.1046  142.4441  168.5027 C.ar    1  UNL1        0.0352
     15 C         140.4041  142.0519  167.2356 C.ar    1  UNL1        0.0791
     16 N         139.9072  140.6458  167.3968 N.ar    1  UNL1       -0.2492
     17 C         139.1499  139.8553  166.3713 C.3     1  UNL1        0.1537
     18 N         140.3005  140.1690  168.7634 N.ar    1  UNL1       -0.1736
     19 C         141.5387  145.1549  159.0667 C.3     1  UNL1        0.0730
     20 C         141.1201  144.2499  157.9461 C.3     1  UNL1        0.0294
     21 C         139.6726  144.1461  157.5666 C.3     1  UNL1        0.0666
     22 S         138.9329  142.8581  157.7755 S.3     1  UNL1       -0.0756
     23 C         138.8004  142.2846  159.1552 C.ar    1  UNL1        0.1933
     24 N         138.2264  142.9862  160.3503 N.ar    1  UNL1       -0.1220
     25 N         138.2899  142.0441  161.5158 N.ar    1  UNL1       -0.1250
     26 C         138.9032  140.7602  161.0410 C.ar    1  UNL1        0.2029
     27 N         139.2188  140.9088  159.5821 N.ar    1  UNL1       -0.2860
     28 C         139.8430  139.8649  158.7043 C.3     1  UNL1        0.1341
     29 C         139.1566  139.5416  161.8781 C.ar    1  UNL1        0.1964
     30 O         138.1098  138.6728  162.5101 O.2     1  UNL1       -0.4283
     31 C         138.8074  137.5721  163.2528 C.ar    1  UNL1        0.2849
     32 N         140.2854  137.7606  163.0800 N.ar    1  UNL1       -0.2085
     33 C         140.5012  138.9778  162.2303 C.ar    1  UNL1        0.1001
     34 C         141.8287  139.5336  161.8073 C.3     1  UNL1        0.0556
@<TRIPOS>BOND
     1    12    13    1
     2    13    14   ar
     3    14    15   ar
     4    15     1    1
     5     1     2   ar
     6     2     3   ar
     7     3     4   ar
     8     4     5   ar
     9     5     6   ar
    10     5     7    1
    11     7     8    1
    12     8     9    1
    13     9    19    1
    14    19    20    1
    15    20    21    1
    16    21    22    1
    17    22    23    1
    18    23    24   ar
    19    24    25   ar
    20    25    26   ar
    21    26    29    1
    22    29    30   ar
    23    30    31   ar
    24    31    32   ar
    25    32    33   ar
    26    33    34    1
    27    26    27   ar
    28    27    28    1
    29     9    10    1
    30    10    11    1
    31    15    16   ar
    32    16    17    1
    33    16    18   ar
    34    18    13   ar
    35     6     1   ar
    36    27    23   ar
    37    11     4    1
    38    33    29   ar
@<TRIPOS>MOLECULE
*****
 34 38 0 0 0
SMALL
GASTEIGER

@<TRIPOS>ATOM
      1 C         139.2007  139.2631  165.4534 C.ar    1  UNL1        0.0170
      2 C         139.9380  138.0301  165.0219 C.ar    1  UNL1        0.0011
      3 C         140.0835  137.7154  163.5625 C.ar    1  UNL1       -0.0045
      4 C         139.4918  138.6338  162.5346 C.ar    1  UNL1       -0.0247
      5 C         138.7546  139.8667  162.9661 C.ar    1  UNL1       -0.0246
      6 C         138.6091  140.1814  164.4254 C.ar    1  UNL1       -0.0030
      7 C         138.0935  140.9080  162.1124 C.3     1  UNL1        0.0433
      8 C         138.0065  140.9734  160.6163 C.3     1  UNL1        0.0768
      9 N         138.5589  140.0137  159.6046 N.3     1  UNL1       -0.2720
     10 C         139.3349  138.7516  159.8388 C.3     1  UNL1        0.0768
     11 C         139.7501  138.1374  161.1428 C.3     1  UNL1        0.0433
     12 C         139.9315  141.3963  170.2279 C.3     1  UNL1        0.0540
     13 C         139.3911  140.5583  169.1074 C.ar    1  UNL1        0.0804
     14 C         139.8756  140.5659  167.6877 C.ar    1  UNL1        0.0352
     15 C         139.0552  139.5777  166.9128 C.ar    1  UNL1        0.0791
     16 N         138.0638  138.9594  167.8534 N.ar    1  UNL1       -0.2492
     17 C         137.0439  137.9179  167.4998 C.3     1  UNL1        0.1537
     18 N         138.2714  139.5654  169.2097 N.ar    1  UNL1       -0.1736
     19 C         138.3013  140.3622  158.1685 C.3     1  UNL1        0.0730
     20 C         139.3846  140.9914  157.3434 C.3     1  UNL1        0.0294
     21 C         139.4978  142.4852  157.2675 C.3     1  UNL1        0.0666
     22 S         140.6179  143.1893  157.9742 S.3     1  UNL1       -0.0756
     23 C         140.4130  143.7199  159.3622 C.ar    1  UNL1        0.1933
     24 N         139.7599  145.0217  159.7210 N.ar    1  UNL1       -0.1220
     25 N         139.7685  145.1482  161.2156 N.ar    1  UNL1       -0.1250
     26 C         140.4268  143.9245  161.7806 C.ar    1  UNL1        0.2029
     27 N         140.8252  143.0417  160.6351 N.ar    1  UNL1       -0.2860
     28 C         141.5146  141.7140  160.7435 C.3     1  UNL1        0.1341
     29 C         140.6480  143.6345  163.2355 C.ar    1  UNL1        0.1964
     30 O         141.9396  143.1983  163.8612 O.2     1  UNL1       -0.4283
     31 C         141.7063  143.0240  165.3327 C.ar    1  UNL1        0.2849
     32 N         140.2705  143.3525  165.6164 N.ar    1  UNL1       -0.2085
     33 C         139.6164  143.7299  164.3203 C.ar    1  UNL1        0.1001
     34 C         138.1825  144.1319  164.1406 C.3     1  UNL1        0.0556
@<TRIPOS>BOND
     1    12    13    1
     2    13    14   ar
     3    14    15   ar
     4    15     1    1
     5     1     2   ar
     6     2     3   ar
     7     3     4   ar
     8     4     5   ar
     9     5     6   ar
    10     5     7    1
    11     7     8    1
    12     8     9    1
    13     9    19    1
    14    19    20    1
    15    20    21    1
    16    21    22    1
    17    22    23    1
    18    23    24   ar
    19    24    25   ar
    20    25    26   ar
    21    26    29    1
    22    29    30   ar
    23    30    31   ar
    24    31    32   ar
    25    32    33   ar
    26    33    34    1
    27    26    27   ar
    28    27    28    1
    29     9    10    1
    30    10    11    1
    31    15    16   ar
    32    16    17    1
    33    16    18   ar
    34    18    13   ar
    35     6     1   ar
    36    27    23   ar
    37    11     4    1
    38    33    29   ar
@<TRIPOS>MOLECULE
*****
 34 38 0 0 0
SMALL
GASTEIGER

@<TRIPOS>ATOM
      1 C         141.7874  140.4399  167.8304 C.ar    1  UNL1        0.0170
      2 C         142.8238  139.4618  167.3620 C.ar    1  UNL1        0.0011
      3 C         142.5815  138.6464  166.1265 C.ar    1  UNL1       -0.0045
      4 C         141.3026  138.8091  165.3595 C.ar    1  UNL1       -0.0247
      5 C         140.2664  139.7870  165.8279 C.ar    1  UNL1       -0.0246
      6 C         140.5087  140.6025  167.0633 C.ar    1  UNL1       -0.0030
      7 C         138.9335  140.1022  165.2160 C.3     1  UNL1        0.0433
      8 C         138.3079  139.5171  163.9846 C.3     1  UNL1        0.0768
      9 N         138.8607  138.4725  163.0610 N.3     1  UNL1       -0.2720
     10 C         140.1754  137.7548  163.1406 C.3     1  UNL1        0.0768
     11 C         141.2623  137.9046  164.1635 C.3     1  UNL1        0.0433
     12 C         143.7294  144.0373  171.1723 C.3     1  UNL1        0.0540
     13 C         142.9225  142.9088  170.6020 C.ar    1  UNL1        0.0804
     14 C         143.0131  142.3799  169.2012 C.ar    1  UNL1        0.0352
     15 C         142.0298  141.2552  169.0659 C.ar    1  UNL1        0.0791
     16 N         141.3315  141.0891  170.3830 N.ar    1  UNL1       -0.2492
     17 C         140.2681  140.0784  170.6958 C.3     1  UNL1        0.1537
     18 N         141.8831  142.1110  171.3323 N.ar    1  UNL1       -0.1736
     19 C         137.9824  138.0956  161.9048 C.3     1  UNL1        0.0730
     20 C         137.8017  139.0466  160.7590 C.3     1  UNL1        0.0294
     21 C         137.5887  140.5077  161.0233 C.3     1  UNL1        0.0666
     22 S         138.6398  141.5023  160.6286 S.3     1  UNL1       -0.0756
     23 C         139.7201  141.8769  161.5994 C.ar    1  UNL1        0.1933
     24 N         139.6028  142.8864  162.7027 N.ar    1  UNL1       -0.1220
     25 N         140.9176  142.9412  163.4226 N.ar    1  UNL1       -0.1250
     26 C         141.8475  141.9656  162.7643 C.ar    1  UNL1        0.2029
     27 N         141.1074  141.3078  161.6374 N.ar    1  UNL1       -0.2860
     28 C         141.6581  140.2642  160.7113 C.3     1  UNL1        0.1341
     29 C         143.2681  141.6953  163.1627 C.ar    1  UNL1        0.1964
     30 O         143.8420  140.3587  163.5289 O.2     1  UNL1       -0.4283
     31 C         145.2929  140.5514  163.8575 C.ar    1  UNL1        0.2849
     32 N         145.6157  142.0072  163.6943 N.ar    1  UNL1       -0.2085
     33 C         144.3643  142.7141  163.2649 C.ar    1  UNL1        0.1001
     34 C         144.2323  144.1822  162.9866 C.3     1  UNL1        0.0556
@<TRIPOS>BOND
     1    12    13    1
     2    13    14   ar
     3    14    15   ar
     4    15     1    1
     5     1     2   ar
     6     2     3   ar
     7     3     4   ar
     8     4     5   ar
     9     5     6   ar
    10     5     7    1
    11     7     8    1
    12     8     9    1
    13     9    19    1
    14    19    20    1
    15    20    21    1
    16    21    22    1
    17    22    23    1
    18    23    24   ar
    19    24    25   ar
    20    25    26   ar
    21    26    29    1
    22    29    30   ar
    23    30    31   ar
    24    31    32   ar
    25    32    33   ar
    26    33    34    1
    27    26    27   ar
    28    27    28    1
    29     9    10    1
    30    10    11    1
    31    15    16   ar
    32    16    17    1
    33    16    18   ar
    34    18    13   ar
    35     6     1   ar
    36    27    23   ar
    37    11     4    1
    38    33    29   ar
@<TRIPOS>MOLECULE
*****
 34 38 0 0 0
SMALL
GASTEIGER

@<TRIPOS>ATOM
      1 C         140.6121  140.4766  167.0092 C.ar    1  UNL1        0.0170
      2 C         139.3800  139.6758  166.7085 C.ar    1  UNL1        0.0011
      3 C         139.3243  138.8183  165.4790 C.ar    1  UNL1       -0.0045
      4 C         140.5008  138.7617  164.5502 C.ar    1  UNL1       -0.0247
      5 C         141.7329  139.5625  164.8509 C.ar    1  UNL1       -0.0246
      6 C         141.7886  140.4200  166.0803 C.ar    1  UNL1       -0.0030
      7 C         143.0071  139.6493  164.0641 C.3     1  UNL1        0.0433
      8 C         143.3637  138.9566  162.7823 C.3     1  UNL1        0.0768
      9 N         142.5344  138.0061  161.9708 N.3     1  UNL1       -0.2720
     10 C         141.1435  137.5135  162.2405 C.3     1  UNL1        0.0768
     11 C         140.2384  137.8498  163.3885 C.3     1  UNL1        0.0433
     12 C         140.3328  144.6396  170.2453 C.3     1  UNL1        0.0540
     13 C         140.5394  143.2475  169.7262 C.ar    1  UNL1        0.0804
     14 C         140.3541  142.7993  168.3067 C.ar    1  UNL1        0.0352
     15 C         140.6678  141.3341  168.2387 C.ar    1  UNL1        0.0791
     16 N         141.0468  140.8767  169.6161 N.ar    1  UNL1       -0.2492
     17 C         141.4368  139.4817  170.0058 C.3     1  UNL1        0.1537
     18 N         140.9675  142.0593  170.5354 N.ar    1  UNL1       -0.1736
     19 C         143.1815  137.4784  160.7247 C.3     1  UNL1        0.0730
     20 C         143.0698  138.2440  159.4395 C.3     1  UNL1        0.0294
     21 C         141.7472  138.3454  158.7393 C.3     1  UNL1        0.0666
     22 S         141.3145  139.6501  158.1390 S.3     1  UNL1       -0.0756
     23 C         140.1919  140.4264  158.7613 C.ar    1  UNL1        0.1933
     24 N         138.7895  140.5218  158.2377 N.ar    1  UNL1       -0.1220
     25 N         138.0055  141.3979  159.1692 N.ar    1  UNL1       -0.1250
     26 C         138.9234  141.8440  160.2685 C.ar    1  UNL1        0.2029
     27 N         140.2747  141.2435  160.0164 N.ar    1  UNL1       -0.2860
     28 C         141.4946  141.4279  160.8697 C.3     1  UNL1        0.1341
     29 C         138.5548  142.7342  161.4181 C.ar    1  UNL1        0.1964
     30 O         138.7771  144.2157  161.4926 O.2     1  UNL1       -0.4283
     31 C         138.2588  144.6964  162.8156 C.ar    1  UNL1        0.2849
     32 N         137.7161  143.5119  163.5589 N.ar    1  UNL1       -0.2085
     33 C         137.8991  142.2992  162.6951 C.ar    1  UNL1        0.1001
     34 C         137.4969  140.8975  163.0468 C.3     1  UNL1        0.0556
@<TRIPOS>BOND
     1    12    13    1
     2    13    14   ar
     3    14    15   ar
     4    15     1    1
     5     1     2   ar
     6     2     3   ar
     7     3     4   ar
     8     4     5   ar
     9     5     6   ar
    10     5     7    1
    11     7     8    1
    12     8     9    1
    13     9    19    1
    14    19    20    1
    15    20    21    1
    16    21    22    1
    17    22    23    1
    18    23    24   ar
    19    24    25   ar
    20    25    26   ar
    21    26    29    1
    22    29    30   ar
    23    30    31   ar
    24    31    32   ar
    25    32    33   ar
    26    33    34    1
    27    26    27   ar
    28    27    28    1
    29     9    10    1
    30    10    11    1
    31    15    16   ar
    32    16    17    1
    33    16    18   ar
    34    18    13   ar
    35     6     1   ar
    36    27    23   ar
    37    11     4    1
    38    33    29   ar
@<TRIPOS>MOLECULE
*****
 34 38 0 0 0
SMALL
GASTEIGER

@<TRIPOS>ATOM
      1 C         141.7647  138.5551  159.5460 C.ar    1  UNL1        0.0170
      2 C         143.1258  139.1744  159.4283 C.ar    1  UNL1        0.0011
      3 C         143.9295  139.4593  160.6625 C.ar    1  UNL1       -0.0045
      4 C         143.3719  139.1248  162.0143 C.ar    1  UNL1       -0.0247
      5 C         142.0109  138.5055  162.1319 C.ar    1  UNL1       -0.0246
      6 C         141.2072  138.2206  160.8979 C.ar    1  UNL1       -0.0030
      7 C         141.2733  138.0969  163.3726 C.3     1  UNL1        0.0433
      8 C         141.7148  138.2069  164.8020 C.3     1  UNL1        0.0768
      9 N         143.0027  138.7524  165.3437 N.3     1  UNL1       -0.2720
     10 C         144.1674  139.3228  164.5899 C.3     1  UNL1        0.0768
     11 C         144.3317  139.4885  163.1082 C.3     1  UNL1        0.0433
     12 C         140.2329  136.5762  154.8965 C.3     1  UNL1        0.0540
     13 C         140.2570  137.3607  156.1747 C.ar    1  UNL1        0.0804
     14 C         141.3505  137.3402  157.2014 C.ar    1  UNL1        0.0352
     15 C         140.9611  138.2702  158.3119 C.ar    1  UNL1        0.0791
     16 N         139.6270  138.8655  157.9716 N.ar    1  UNL1       -0.2492
     17 C         138.8622  139.8501  158.8057 C.3     1  UNL1        0.1537
     18 N         139.1919  138.3034  156.6508 N.ar    1  UNL1       -0.1736
     19 C         143.1448  138.7238  166.8366 C.3     1  UNL1        0.0730
     20 C         142.6754  139.8884  167.6573 C.3     1  UNL1        0.0294
     21 C         141.5892  139.6999  168.6745 C.3     1  UNL1        0.0666
     22 S         140.2762  140.4058  168.5092 S.3     1  UNL1       -0.0756
     23 C         139.5994  140.4272  167.1707 C.ar    1  UNL1        0.1933
     24 N         138.6426  139.3961  166.6499 N.ar    1  UNL1       -0.1220
     25 N         138.2125  139.8150  165.2754 N.ar    1  UNL1       -0.1250
     26 C         138.9036  141.1051  164.9466 C.ar    1  UNL1        0.2029
     27 N         139.7608  141.4835  166.1180 N.ar    1  UNL1       -0.2860
     28 C         140.6271  142.7038  166.2189 C.3     1  UNL1        0.1341
     29 C         138.7623  141.8807  163.6705 C.ar    1  UNL1        0.1964
     30 O         139.1532  141.4061  162.3024 O.2     1  UNL1       -0.4283
     31 C         138.8378  142.4992  161.3247 C.ar    1  UNL1        0.2849
     32 N         138.2520  143.6495  162.0887 N.ar    1  UNL1       -0.2085
     33 C         138.2053  143.2672  163.5385 C.ar    1  UNL1        0.1001
     34 C         137.6918  144.1216  164.6594 C.3     1  UNL1        0.0556
@<TRIPOS>BOND
     1    12    13    1
     2    13    14   ar
     3    14    15   ar
     4    15     1    1
     5     1     2   ar
     6     2     3   ar
     7     3     4   ar
     8     4     5   ar
     9     5     6   ar
    10     5     7    1
    11     7     8    1
    12     8     9    1
    13     9    19    1
    14    19    20    1
    15    20    21    1
    16    21    22    1
    17    22    23    1
    18    23    24   ar
    19    24    25   ar
    20    25    26   ar
    21    26    29    1
    22    29    30   ar
    23    30    31   ar
    24    31    32   ar
    25    32    33   ar
    26    33    34    1
    27    26    27   ar
    28    27    28    1
    29     9    10    1
    30    10    11    1
    31    15    16   ar
    32    16    17    1
    33    16    18   ar
    34    18    13   ar
    35     6     1   ar
    36    27    23   ar
    37    11     4    1
    38    33    29   ar
@<TRIPOS>MOLECULE
*****
 34 38 0 0 0
SMALL
GASTEIGER

@<TRIPOS>ATOM
      1 C         140.3080  143.9238  162.4626 C.ar    1  UNL1        0.0170
      2 C         139.0374  144.0721  163.2460 C.ar    1  UNL1        0.0011
      3 C         139.0370  143.8325  164.7268 C.ar    1  UNL1       -0.0045
      4 C         140.3072  143.4447  165.4242 C.ar    1  UNL1       -0.0247
      5 C         141.5777  143.2965  164.6408 C.ar    1  UNL1       -0.0246
      6 C         141.5782  143.5361  163.1601 C.ar    1  UNL1       -0.0030
      7 C         142.9431  142.9209  165.1355 C.3     1  UNL1        0.0433
      8 C         143.3751  142.6008  166.5359 C.3     1  UNL1        0.0768
      9 N         142.5484  142.5772  167.7872 N.3     1  UNL1       -0.2720
     10 C         141.0856  142.8679  167.9475 C.3     1  UNL1        0.0768
     11 C         140.0881  143.2540  166.8958 C.3     1  UNL1        0.0433
     12 C         141.4558  145.8714  157.6909 C.3     1  UNL1        0.0540
     13 C         140.8359  145.0586  158.7885 C.ar    1  UNL1        0.0804
     14 C         141.1615  145.1563  160.2496 C.ar    1  UNL1        0.0352
     15 C         140.3084  144.1634  160.9819 C.ar    1  UNL1        0.0791
     16 N         139.4556  143.4521  159.9735 N.ar    1  UNL1       -0.2492
     17 C         138.4528  142.3763  160.2688 C.3     1  UNL1        0.1537
     18 N         139.7817  144.0053  158.6180 N.ar    1  UNL1       -0.1736
     19 C         143.2815  142.2150  169.0448 C.3     1  UNL1        0.0730
     20 C         142.5210  141.9900  170.3180 C.3     1  UNL1        0.0294
     21 C         142.1962  140.5941  170.7610 C.3     1  UNL1        0.0666
     22 S         142.1734  139.4762  169.7612 S.3     1  UNL1       -0.0756
     23 C         141.2199  139.5241  168.6042 C.ar    1  UNL1        0.1933
     24 N         139.7377  139.7370  168.6914 N.ar    1  UNL1       -0.1220
     25 N         139.1830  139.7120  167.2980 N.ar    1  UNL1       -0.1250
     26 C         140.3225  139.4837  166.3495 C.ar    1  UNL1        0.2029
     27 N         141.5814  139.3676  167.1568 N.ar    1  UNL1       -0.2860
     28 C         142.9597  139.1357  166.6123 C.3     1  UNL1        0.1341
     29 C         140.2209  139.3883  164.8560 C.ar    1  UNL1        0.1964
     30 O         139.7736  140.4812  163.9311 O.2     1  UNL1       -0.4283
     31 C         139.8250  139.9516  162.5286 C.ar    1  UNL1        0.2849
     32 N         140.3041  138.5313  162.5868 N.ar    1  UNL1       -0.2085
     33 C         140.5487  138.1832  164.0252 C.ar    1  UNL1        0.1001
     34 C         141.0357  136.8619  164.5420 C.3     1  UNL1        0.0556
@<TRIPOS>BOND
     1    12    13    1
     2    13    14   ar
     3    14    15   ar
     4    15     1    1
     5     1     2   ar
     6     2     3   ar
     7     3     4   ar
     8     4     5   ar
     9     5     6   ar
    10     5     7    1
    11     7     8    1
    12     8     9    1
    13     9    19    1
    14    19    20    1
    15    20    21    1
    16    21    22    1
    17    22    23    1
    18    23    24   ar
    19    24    25   ar
    20    25    26   ar
    21    26    29    1
    22    29    30   ar
    23    30    31   ar
    24    31    32   ar
    25    32    33   ar
    26    33    34    1
    27    26    27   ar
    28    27    28    1
    29     9    10    1
    30    10    11    1
    31    15    16   ar
    32    16    17    1
    33    16    18   ar
    34    18    13   ar
    35     6     1   ar
    36    27    23   ar
    37    11     4    1
    38    33    29   ar
@<TRIPOS>MOLECULE
*****
 34 38 0 0 0
SMALL
GASTEIGER

@<TRIPOS>ATOM
      1 C         140.7687  144.9339  158.9884 C.ar    1  UNL1        0.0170
      2 C         140.2156  145.5132  160.2567 C.ar    1  UNL1        0.0011
      3 C         140.8517  145.1795  161.5736 C.ar    1  UNL1       -0.0045
      4 C         142.0409  144.2664  161.6221 C.ar    1  UNL1       -0.0247
      5 C         142.5939  143.6872  160.3538 C.ar    1  UNL1       -0.0246
      6 C         141.9578  144.0209  159.0370 C.ar    1  UNL1       -0.0030
      7 C         143.7626  142.7632  160.1793 C.3     1  UNL1        0.0433
      8 C         144.6670  142.1904  161.2301 C.3     1  UNL1        0.0768
      9 N         144.6259  142.4000  162.7147 N.3     1  UNL1       -0.2720
     10 C         143.6704  143.2342  163.5155 C.3     1  UNL1        0.0768
     11 C         142.5199  144.0649  163.0292 C.3     1  UNL1        0.0433
     12 C         139.2131  147.5744  154.6886 C.3     1  UNL1        0.0540
     13 C         139.4175  146.4813  155.6952 C.ar    1  UNL1        0.0804
     14 C         140.1857  146.5968  156.9785 C.ar    1  UNL1        0.0352
     15 C         140.1325  145.2676  157.6717 C.ar    1  UNL1        0.0791
     16 N         139.3315  144.3307  156.8169 N.ar    1  UNL1       -0.2492
     17 C         139.0260  142.8957  157.1288 C.3     1  UNL1        0.1537
     18 N         138.8896  145.0808  155.5954 N.ar    1  UNL1       -0.1736
     19 C         145.6797  141.6802  163.5030 C.3     1  UNL1        0.0730
     20 C         145.3109  140.4869  164.3338 C.3     1  UNL1        0.0294
     21 C         144.5550  139.3478  163.7164 C.3     1  UNL1        0.0666
     22 S         143.3003  138.8418  164.3640 S.3     1  UNL1       -0.0756
     23 C         143.1181  138.9690  165.8475 C.ar    1  UNL1        0.1933
     24 N         143.7569  138.1022  166.8918 N.ar    1  UNL1       -0.1220
     25 N         143.2988  138.5828  168.2368 N.ar    1  UNL1       -0.1250
     26 C         142.3768  139.7467  168.0238 C.ar    1  UNL1        0.2029
     27 N         142.2652  139.9854  166.5470 N.ar    1  UNL1       -0.2860
     28 C         141.4446  141.0530  165.8861 C.3     1  UNL1        0.1341
     29 C         141.6876  140.5337  169.0987 C.ar    1  UNL1        0.1964
     30 O         142.3587  141.3760  170.1427 O.2     1  UNL1       -0.4283
     31 C         141.2920  141.9795  171.0076 C.ar    1  UNL1        0.2849
     32 N         139.9616  141.5102  170.4981 N.ar    1  UNL1       -0.2085
     33 C         140.2060  140.6166  169.3183 C.ar    1  UNL1        0.1001
     34 C         139.1536  139.9271  168.5015 C.3     1  UNL1        0.0556
@<TRIPOS>BOND
     1    12    13    1
     2    13    14   ar
     3    14    15   ar
     4    15     1    1
     5     1     2   ar
     6     2     3   ar
     7     3     4   ar
     8     4     5   ar
     9     5     6   ar
    10     5     7    1
    11     7     8    1
    12     8     9    1
    13     9    19    1
    14    19    20    1
    15    20    21    1
    16    21    22    1
    17    22    23    1
    18    23    24   ar
    19    24    25   ar
    20    25    26   ar
    21    26    29    1
    22    29    30   ar
    23    30    31   ar
    24    31    32   ar
    25    32    33   ar
    26    33    34    1
    27    26    27   ar
    28    27    28    1
    29     9    10    1
    30    10    11    1
    31    15    16   ar
    32    16    17    1
    33    16    18   ar
    34    18    13   ar
    35     6     1   ar
    36    27    23   ar
    37    11     4    1
    38    33    29   ar
@<TRIPOS>MOLECULE
*****
 34 38 0 0 0
SMALL
GASTEIGER

@<TRIPOS>ATOM
      1 C         142.3230  142.2082  166.1922 C.ar    1  UNL1        0.0170
      2 C         143.7530  142.6392  166.0524 C.ar    1  UNL1        0.0011
      3 C         144.3373  142.8689  164.6901 C.ar    1  UNL1       -0.0045
      4 C         143.4916  142.6677  163.4676 C.ar    1  UNL1       -0.0247
      5 C         142.0617  142.2368  163.6075 C.ar    1  UNL1       -0.0246
      6 C         141.4774  142.0070  164.9697 C.ar    1  UNL1       -0.0030
      7 C         141.0521  141.9810  162.5280 C.3     1  UNL1        0.0433
      8 C         141.2232  142.0930  161.0419 C.3     1  UNL1        0.0768
      9 N         142.4460  142.4884  160.2685 N.3     1  UNL1       -0.2720
     10 C         143.7999  142.8696  160.7900 C.3     1  UNL1        0.0768
     11 C         144.2652  142.9494  162.2137 C.3     1  UNL1        0.0433
     12 C         139.6909  142.9231  170.7134 C.3     1  UNL1        0.0540
     13 C         140.5290  142.3070  169.6327 C.ar    1  UNL1        0.0804
     14 C         140.8924  142.9473  168.3258 C.ar    1  UNL1        0.0352
     15 C         141.7388  141.9784  167.5545 C.ar    1  UNL1        0.0791
     16 N         141.8985  140.7394  168.3848 N.ar    1  UNL1       -0.2492
     17 C         142.6704  139.5126  167.9985 C.3     1  UNL1        0.1537
     18 N         141.1508  140.9425  169.6691 N.ar    1  UNL1       -0.1736
     19 C         142.2951  142.5049  158.7762 C.3     1  UNL1        0.0730
     20 C         142.1078  141.2190  158.0270 C.3     1  UNL1        0.0294
     21 C         140.7504  140.8416  157.5123 C.3     1  UNL1        0.0666
     22 S         140.1098  139.5599  157.9559 S.3     1  UNL1       -0.0756
     23 C         139.2822  139.5288  159.2066 C.ar    1  UNL1        0.1933
     24 N         137.8543  139.9713  159.3302 N.ar    1  UNL1       -0.1220
     25 N         137.4267  139.7656  160.7531 N.ar    1  UNL1       -0.1250
     26 C         138.5904  139.1960  161.5090 C.ar    1  UNL1        0.2029
     27 N         139.7372  139.0496  160.5532 N.ar    1  UNL1       -0.2860
     28 C         141.0996  138.5175  160.8856 C.3     1  UNL1        0.1341
     29 C         138.6049  138.8360  162.9651 C.ar    1  UNL1        0.1964
     30 O         138.9467  137.4925  163.5378 O.2     1  UNL1       -0.4283
     31 C         138.8331  137.5824  165.0308 C.ar    1  UNL1        0.2849
     32 N         138.4211  138.9815  165.3808 N.ar    1  UNL1       -0.2085
     33 C         138.2801  139.7563  164.1041 C.ar    1  UNL1        0.1001
     34 C         137.8837  141.1983  163.9872 C.3     1  UNL1        0.0556
@<TRIPOS>BOND
     1    12    13    1
     2    13    14   ar
     3    14    15   ar
     4    15     1    1
     5     1     2   ar
     6     2     3   ar
     7     3     4   ar
     8     4     5   ar
     9     5     6   ar
    10     5     7    1
    11     7     8    1
    12     8     9    1
    13     9    19    1
    14    19    20    1
    15    20    21    1
    16    21    22    1
    17    22    23    1
    18    23    24   ar
    19    24    25   ar
    20    25    26   ar
    21    26    29    1
    22    29    30   ar
    23    30    31   ar
    24    31    32   ar
    25    32    33   ar
    26    33    34    1
    27    26    27   ar
    28    27    28    1
    29     9    10    1
    30    10    11    1
    31    15    16   ar
    32    16    17    1
    33    16    18   ar
    34    18    13   ar
    35     6     1   ar
    36    27    23   ar
    37    11     4    1
    38    33    29   ar
@<TRIPOS>MOLECULE
*****
 34 38 0 0 0
SMALL
GASTEIGER

@<TRIPOS>ATOM
      1 C         140.4184  141.1262  167.0329 C.ar    1  UNL1        0.0170
      2 C         139.1616  140.5335  166.4680 C.ar    1  UNL1        0.0011
      3 C         138.5674  141.0943  165.2100 C.ar    1  UNL1       -0.0045
      4 C         139.2301  142.2479  164.5170 C.ar    1  UNL1       -0.0247
      5 C         140.4868  142.8405  165.0819 C.ar    1  UNL1       -0.0246
      6 C         141.0810  142.2797  166.3398 C.ar    1  UNL1       -0.0030
      7 C         141.3015  143.9839  164.5534 C.3     1  UNL1        0.0433
      8 C         141.0603  144.8169  163.3295 C.3     1  UNL1        0.0768
      9 N         139.9452  144.7123  162.3319 N.3     1  UNL1       -0.2720
     10 C         138.7956  143.7489  162.3116 C.3     1  UNL1        0.0768
     11 C         138.4774  142.6521  163.2841 C.3     1  UNL1        0.0433
     12 C         143.1639  138.0954  170.3731 C.3     1  UNL1        0.0540
     13 C         142.2745  139.1723  169.8262 C.ar    1  UNL1        0.0804
     14 C         141.9244  139.3779  168.3822 C.ar    1  UNL1        0.0352
     15 C         141.0125  140.5654  168.2909 C.ar    1  UNL1        0.0791
     16 N         140.7990  141.0936  169.6785 N.ar    1  UNL1       -0.2492
     17 C         139.9539  142.2754  170.0517 C.3     1  UNL1        0.1537
     18 N         141.5789  140.2326  170.6273 N.ar    1  UNL1       -0.1736
     19 C         139.9847  145.7021  161.2054 C.3     1  UNL1        0.0730
     20 C         140.8391  145.4348  160.0018 C.3     1  UNL1        0.0294
     21 C         140.5084  144.2941  159.0856 C.3     1  UNL1        0.0666
     22 S         141.5555  143.2739  158.7501 S.3     1  UNL1       -0.0756
     23 C         141.7701  142.0948  159.6522 C.ar    1  UNL1        0.1933
     24 N         141.0993  140.7587  159.5315 N.ar    1  UNL1       -0.1220
     25 N         141.6078  139.8830  160.6381 N.ar    1  UNL1       -0.1250
     26 C         142.5930  140.6780  161.4427 C.ar    1  UNL1        0.2029
     27 N         142.6933  142.0450  160.8334 N.ar    1  UNL1       -0.2860
     28 C         143.5640  143.1654  161.3199 C.3     1  UNL1        0.1341
     29 C         143.3457  140.1914  162.6455 C.ar    1  UNL1        0.1964
     30 O         144.8142  140.3655  162.8964 O.2     1  UNL1       -0.4283
     31 C         145.1382  139.7270  164.2145 C.ar    1  UNL1        0.2849
     32 N         143.8699  139.1582  164.7782 N.ar    1  UNL1       -0.2085
     33 C         142.7620  139.4453  163.8085 C.ar    1  UNL1        0.1001
     34 C         141.3231  139.0547  163.9730 C.3     1  UNL1        0.0556
@<TRIPOS>BOND
     1    12    13    1
     2    13    14   ar
     3    14    15   ar
     4    15     1    1
     5     1     2   ar
     6     2     3   ar
     7     3     4   ar
     8     4     5   ar
     9     5     6   ar
    10     5     7    1
    11     7     8    1
    12     8     9    1
    13     9    19    1
    14    19    20    1
    15    20    21    1
    16    21    22    1
    17    22    23    1
    18    23    24   ar
    19    24    25   ar
    20    25    26   ar
    21    26    29    1
    22    29    30   ar
    23    30    31   ar
    24    31    32   ar
    25    32    33   ar
    26    33    34    1
    27    26    27   ar
    28    27    28    1
    29     9    10    1
    30    10    11    1
    31    15    16   ar
    32    16    17    1
    33    16    18   ar
    34    18    13   ar
    35     6     1   ar
    36    27    23   ar
    37    11     4    1
    38    33    29   ar
