@<TRIPOS>MOLECULE
*****
 37 40 0 0 0
SMALL
GASTEIGER

@<TRIPOS>ATOM
      1 N         137.7181  140.2368  164.8518 N.pl3   1  UNL1       -0.3316
      2 H         136.7966  139.9614  164.6414 H       1  UNL1        0.1468
      3 C         138.3897  141.2978  164.0313 C.ar    1  UNL1        0.0577
      4 C         139.0381  142.4699  164.7064 C.ar    1  UNL1        0.0462
      5 C         139.7097  143.5309  163.8858 C.ar    1  UNL1        0.1602
      6 F         140.3581  144.7029  164.5610 F       1  UNL1       -0.2027
      7 C         139.7328  143.4198  162.3902 C.ar    1  UNL1        0.1534
      8 C         139.0844  142.2477  161.7150 C.ar    1  UNL1        0.0351
      9 C         138.4129  141.1867  162.5355 C.ar    1  UNL1        0.0722
     10 CL        137.7645  140.0147  161.8604 Cl      1  UNL1       -0.0809
     11 S         140.4044  144.4808  161.5697 S.O2    1  UNL1        0.0769
     12 O         141.6332  143.6263  161.4705 O.2     1  UNL1       -0.1498
     13 O         139.1756  145.3353  161.6689 O.2     1  UNL1       -0.1498
     14 N         141.0760  145.5418  160.7491 N.pl3   1  UNL1       -0.1984
     15 H         141.4610  146.3340  161.1888 H       1  UNL1        0.1753
     16 C         141.1610  145.3956  159.2586 C.ar    1  UNL1        0.1542
     17 C         140.1553  144.7112  158.3811 C.ar    1  UNL1        0.0725
     18 S         140.6393  144.8008  156.9641 S.2     1  UNL1       -0.0625
     19 C         141.9442  145.5406  156.9660 C.ar    1  UNL1        0.1360
     20 N         142.2667  145.9082  158.3841 N.ar    1  UNL1       -0.2203
     21 C         138.4505  139.5954  165.9930 C.3     1  UNL1        0.0927
     22 N         139.2153  137.6890  163.8064 N.3     1  UNL1       -0.3219
     23 C         140.2647  138.2272  164.7333 C.3     1  UNL1        0.0568
     24 C         141.6965  137.8121  164.5670 C.3     1  UNL1        0.0205
     25 C         142.7459  138.3503  165.4938 C.3     1  UNL1        0.0271
     26 C         142.3636  139.3035  166.5871 C.2     1  UNL1       -0.0303
     27 C         140.9318  139.7185  166.7534 C.2     1  UNL1       -0.0238
     28 C         139.8824  139.1803  165.8265 C.3     1  UNL1        0.0557
     29 H         139.6489  137.0606  163.1301 H       1  UNL1        0.1188
     30 H         138.7678  138.4621  163.3140 H       1  UNL1        0.1188
     31 C         140.5494  140.6717  167.8467 C.ar    1  UNL1       -0.0040
     32 C         139.8030  140.1739  169.0487 C.ar    1  UNL1        0.0020
     33 C         139.4205  141.1271  170.1420 C.ar    1  UNL1        0.0296
     34 C         139.7846  142.5782  170.0332 C.ar    1  UNL1        0.1401
     35 F         139.4022  143.5314  171.1263 F       1  UNL1       -0.2042
     36 C         140.5310  143.0760  168.8310 C.ar    1  UNL1        0.0296
     37 C         140.9134  142.1228  167.7378 C.ar    1  UNL1        0.0020
@<TRIPOS>BOND
     1    23    22    1
     2    23    24    1
     3    24    25    1
     4    25    26    1
     5    26    27    2
     6    27    31    1
     7    31    32   ar
     8    32    33   ar
     9    33    34   ar
    10    34    35    1
    11    34    36   ar
    12    36    37   ar
    13    27    28    1
    14    28    21    1
    15    21     1    1
    16     1     3    1
    17     3     4   ar
    18     4     5   ar
    19     5     6    1
    20     5     7   ar
    21     7    11    1
    22    11    12    2
    23    11    13    2
    24    11    14    1
    25    14    16    1
    26    16    17   ar
    27    17    18   ar
    28    18    19   ar
    29    19    20   ar
    30     7     8   ar
    31     8     9   ar
    32     9    10    1
    33    28    23    1
    34     9     3   ar
    35    37    31   ar
    36    20    16   ar
    37    22    29    1
    38    22    30    1
    39     1     2    1
    40    14    15    1
@<TRIPOS>MOLECULE
*****
 37 40 0 0 0
SMALL
GASTEIGER

@<TRIPOS>ATOM
      1 N         143.4991  138.8031  163.8138 N.pl3   1  UNL1       -0.3316
      2 H         144.1450  138.1927  163.3900 H       1  UNL1        0.1468
      3 C         143.1446  140.0997  163.1482 C.ar    1  UNL1        0.0577
      4 C         141.9806  140.1646  162.2043 C.ar    1  UNL1        0.0462
      5 C         141.6261  141.4613  161.5387 C.ar    1  UNL1        0.1602
      6 F         140.4621  141.5262  160.5949 F       1  UNL1       -0.2027
      7 C         142.4357  142.6931  161.8170 C.ar    1  UNL1        0.1534
      8 C         143.5997  142.6282  162.7609 C.ar    1  UNL1        0.0351
      9 C         143.9542  141.3316  163.4264 C.ar    1  UNL1        0.0722
     10 CL        145.1182  141.2667  164.3703 Cl      1  UNL1       -0.0809
     11 S         142.0812  143.9897  161.1514 S.O2    1  UNL1        0.0769
     12 O         140.9691  144.1918  162.1375 O.2     1  UNL1       -0.1498
     13 O         143.1932  143.7875  160.1653 O.2     1  UNL1       -0.1498
     14 N         141.7266  145.2864  160.4858 N.pl3   1  UNL1       -0.1984
     15 H         141.7187  146.1214  161.0073 H       1  UNL1        0.1753
     16 C         141.3841  145.3108  159.0256 C.ar    1  UNL1        0.1542
     17 C         140.2366  144.5949  158.3771 C.ar    1  UNL1        0.0725
     18 S         140.2722  144.8970  156.9083 S.2     1  UNL1       -0.0625
     19 C         141.4417  145.7998  156.6490 C.ar    1  UNL1        0.1360
     20 N         142.1290  146.0556  157.9576 N.ar    1  UNL1       -0.2203
     21 C         142.8696  138.4364  165.1250 C.3     1  UNL1        0.0927
     22 N         141.0970  136.7673  163.3722 N.3     1  UNL1       -0.3219
     23 C         140.4934  137.6672  164.4095 C.3     1  UNL1        0.0568
     24 C         139.0035  137.7325  164.5704 C.3     1  UNL1        0.0205
     25 C         138.3999  138.6323  165.6077 C.3     1  UNL1        0.0271
     26 C         139.2861  139.4668  166.4840 C.2     1  UNL1       -0.0303
     27 C         140.7760  139.4015  166.3231 C.2     1  UNL1       -0.0238
     28 C         141.3796  138.5017  165.2859 C.3     1  UNL1        0.0557
     29 H         140.3543  136.2786  162.8723 H       1  UNL1        0.1188
     30 H         141.7065  136.0867  163.8257 H       1  UNL1        0.1188
     31 C         141.6623  140.2361  167.1995 C.ar    1  UNL1       -0.0040
     32 C         142.1964  141.5446  166.6970 C.ar    1  UNL1        0.0020
     33 C         143.0828  142.3792  167.5734 C.ar    1  UNL1        0.0296
     34 C         143.4350  141.9052  168.9522 C.ar    1  UNL1        0.1401
     35 F         144.3213  142.7397  169.8286 F       1  UNL1       -0.2042
     36 C         142.9009  140.5966  169.4547 C.ar    1  UNL1        0.0296
     37 C         142.0146  139.7621  168.5784 C.ar    1  UNL1        0.0020
@<TRIPOS>BOND
     1    23    22    1
     2    23    24    1
     3    24    25    1
     4    25    26    1
     5    26    27    2
     6    27    31    1
     7    31    32   ar
     8    32    33   ar
     9    33    34   ar
    10    34    35    1
    11    34    36   ar
    12    36    37   ar
    13    27    28    1
    14    28    21    1
    15    21     1    1
    16     1     3    1
    17     3     4   ar
    18     4     5   ar
    19     5     6    1
    20     5     7   ar
    21     7    11    1
    22    11    12    2
    23    11    13    2
    24    11    14    1
    25    14    16    1
    26    16    17   ar
    27    17    18   ar
    28    18    19   ar
    29    19    20   ar
    30     7     8   ar
    31     8     9   ar
    32     9    10    1
    33    28    23    1
    34     9     3   ar
    35    37    31   ar
    36    20    16   ar
    37    22    29    1
    38    22    30    1
    39     1     2    1
    40    14    15    1
@<TRIPOS>MOLECULE
*****
 37 40 0 0 0
SMALL
GASTEIGER

@<TRIPOS>ATOM
      1 N         139.1684  140.4074  166.4508 N.pl3   1  UNL1       -0.3316
      2 H         138.2579  140.0367  166.5051 H       1  UNL1        0.1468
      3 C         139.4948  141.4466  165.4196 C.ar    1  UNL1        0.0577
      4 C         139.2094  142.8931  165.6959 C.ar    1  UNL1        0.0462
      5 C         139.5358  143.9323  164.6646 C.ar    1  UNL1        0.1602
      6 F         139.2504  145.3787  164.9409 F       1  UNL1       -0.2027
      7 C         140.1477  143.5250  163.3571 C.ar    1  UNL1        0.1534
      8 C         140.4331  142.0786  163.0807 C.ar    1  UNL1        0.0351
      9 C         140.1067  141.0394  164.1120 C.ar    1  UNL1        0.0722
     10 CL        140.3922  139.5930  163.8356 Cl      1  UNL1       -0.0809
     11 S         140.4741  144.5642  162.3258 S.O2    1  UNL1        0.0769
     12 O         141.8375  144.7335  162.9279 O.2     1  UNL1       -0.1498
     13 O         139.1108  144.3950  161.7237 O.2     1  UNL1       -0.1498
     14 N         140.8006  145.6035  161.2946 N.pl3   1  UNL1       -0.1984
     15 H         140.7541  146.5591  161.5268 H       1  UNL1        0.1753
     16 C         141.1979  145.1867  159.9095 C.ar    1  UNL1        0.1542
     17 C         140.4658  145.5216  158.6439 C.ar    1  UNL1        0.0725
     18 S         141.2125  144.9038  157.4990 S.2     1  UNL1       -0.0625
     19 C         142.4062  144.1870  158.0571 C.ar    1  UNL1        0.1360
     20 N         142.3972  144.3619  159.5469 N.ar    1  UNL1       -0.2203
     21 C         140.2291  139.9330  167.3994 C.3     1  UNL1        0.0927
     22 N         138.9254  140.7073  169.9880 N.3     1  UNL1       -0.3219
     23 C         140.2531  141.2952  169.6116 C.3     1  UNL1        0.0568
     24 C         140.9289  142.2702  170.5295 C.3     1  UNL1        0.0205
     25 C         142.2566  142.8581  170.1531 C.3     1  UNL1        0.0271
     26 C         142.9084  142.4710  168.8588 C.2     1  UNL1       -0.0303
     27 C         142.2326  141.4960  167.9410 C.2     1  UNL1       -0.0238
     28 C         140.9049  140.9080  168.3174 C.3     1  UNL1        0.0557
     29 H         138.6334  141.0782  170.8922 H       1  UNL1        0.1188
     30 H         139.0076  139.6923  170.0474 H       1  UNL1        0.1188
     31 C         142.8844  141.1088  166.6466 C.ar    1  UNL1       -0.0040
     32 C         143.1731  139.6662  166.3543 C.ar    1  UNL1        0.0020
     33 C         143.8249  139.2790  165.0599 C.ar    1  UNL1        0.0296
     34 C         144.1880  140.3345  164.0579 C.ar    1  UNL1        0.1401
     35 F         144.8398  139.9474  162.7636 F       1  UNL1       -0.2042
     36 C         143.8993  141.7772  164.3503 C.ar    1  UNL1        0.0296
     37 C         143.2475  142.1643  165.6446 C.ar    1  UNL1        0.0020
@<TRIPOS>BOND
     1    23    22    1
     2    23    24    1
     3    24    25    1
     4    25    26    1
     5    26    27    2
     6    27    31    1
     7    31    32   ar
     8    32    33   ar
     9    33    34   ar
    10    34    35    1
    11    34    36   ar
    12    36    37   ar
    13    27    28    1
    14    28    21    1
    15    21     1    1
    16     1     3    1
    17     3     4   ar
    18     4     5   ar
    19     5     6    1
    20     5     7   ar
    21     7    11    1
    22    11    12    2
    23    11    13    2
    24    11    14    1
    25    14    16    1
    26    16    17   ar
    27    17    18   ar
    28    18    19   ar
    29    19    20   ar
    30     7     8   ar
    31     8     9   ar
    32     9    10    1
    33    28    23    1
    34     9     3   ar
    35    37    31   ar
    36    20    16   ar
    37    22    29    1
    38    22    30    1
    39     1     2    1
    40    14    15    1
@<TRIPOS>MOLECULE
*****
 37 40 0 0 0
SMALL
GASTEIGER

@<TRIPOS>ATOM
      1 N         138.7015  139.4938  164.4079 N.pl3   1  UNL1       -0.3316
      2 H         138.0127  138.8162  164.5968 H       1  UNL1        0.1468
      3 C         139.6275  139.3168  163.2413 C.ar    1  UNL1        0.0577
      4 C         141.0448  139.8001  163.3286 C.ar    1  UNL1        0.0462
      5 C         141.9709  139.6231  162.1619 C.ar    1  UNL1        0.1602
      6 F         143.3882  140.1064  162.2493 F       1  UNL1       -0.2027
      7 C         141.4796  138.9628  160.9079 C.ar    1  UNL1        0.1534
      8 C         140.0623  138.4795  160.8205 C.ar    1  UNL1        0.0351
      9 C         139.1363  138.6565  161.9871 C.ar    1  UNL1        0.0722
     10 CL        137.7190  138.1732  161.8998 Cl      1  UNL1       -0.0809
     11 S         142.4057  138.7858  159.7413 S.O2    1  UNL1        0.0769
     12 O         142.8409  137.4586  160.2881 O.2     1  UNL1       -0.1498
     13 O         141.9705  140.1130  159.1945 O.2     1  UNL1       -0.1498
     14 N         143.3318  138.6088  158.5746 N.pl3   1  UNL1       -0.1984
     15 H         144.2302  139.0111  158.5938 H       1  UNL1        0.1753
     16 C         142.8891  137.8188  157.3788 C.ar    1  UNL1        0.1542
     17 C         141.4837  137.3910  157.0757 C.ar    1  UNL1        0.0725
     18 S         141.5001  136.6257  155.7857 S.2     1  UNL1       -0.0625
     19 C         142.9156  136.5805  155.2915 C.ar    1  UNL1        0.1360
     20 N         143.7742  137.3179  156.2761 N.ar    1  UNL1       -0.2203
     21 C         138.8248  140.7032  165.2866 C.3     1  UNL1        0.0927
     22 N         136.7758  141.3400  163.1899 N.3     1  UNL1       -0.3219
     23 C         137.7445  142.3946  163.6368 C.3     1  UNL1        0.0568
     24 C         137.6886  143.7676  163.0353 C.3     1  UNL1        0.0205
     25 C         138.6572  144.8221  163.4822 C.3     1  UNL1        0.0271
     26 C         139.6817  144.5037  164.5305 C.2     1  UNL1       -0.0303
     27 C         139.7376  143.1308  165.1320 C.2     1  UNL1       -0.0238
     28 C         138.7689  142.0762  164.6851 C.3     1  UNL1        0.0557
     29 H         136.1564  141.7271  162.4780 H       1  UNL1        0.1188
     30 H         136.2229  141.0263  163.9876 H       1  UNL1        0.1188
     31 C         140.7621  142.8123  166.1803 C.ar    1  UNL1       -0.0040
     32 C         142.1596  142.4466  165.7766 C.ar    1  UNL1        0.0020
     33 C         143.1841  142.1281  166.8250 C.ar    1  UNL1        0.0296
     34 C         142.8110  142.1754  168.2771 C.ar    1  UNL1        0.1401
     35 F         143.8354  141.8570  169.3254 F       1  UNL1       -0.2042
     36 C         141.4134  142.5412  168.6808 C.ar    1  UNL1        0.0296
     37 C         140.3889  142.8596  167.6324 C.ar    1  UNL1        0.0020
@<TRIPOS>BOND
     1    23    22    1
     2    23    24    1
     3    24    25    1
     4    25    26    1
     5    26    27    2
     6    27    31    1
     7    31    32   ar
     8    32    33   ar
     9    33    34   ar
    10    34    35    1
    11    34    36   ar
    12    36    37   ar
    13    27    28    1
    14    28    21    1
    15    21     1    1
    16     1     3    1
    17     3     4   ar
    18     4     5   ar
    19     5     6    1
    20     5     7   ar
    21     7    11    1
    22    11    12    2
    23    11    13    2
    24    11    14    1
    25    14    16    1
    26    16    17   ar
    27    17    18   ar
    28    18    19   ar
    29    19    20   ar
    30     7     8   ar
    31     8     9   ar
    32     9    10    1
    33    28    23    1
    34     9     3   ar
    35    37    31   ar
    36    20    16   ar
    37    22    29    1
    38    22    30    1
    39     1     2    1
    40    14    15    1
@<TRIPOS>MOLECULE
*****
 37 40 0 0 0
SMALL
GASTEIGER

@<TRIPOS>ATOM
      1 N         143.1175  139.8383  166.7757 N.pl3   1  UNL1       -0.3316
      2 H         143.8545  139.1857  166.7686 H       1  UNL1        0.1468
      3 C         142.9991  140.8479  165.6727 C.ar    1  UNL1        0.0577
      4 C         143.5897  142.2164  165.8420 C.ar    1  UNL1        0.0462
      5 C         143.4713  143.2260  164.7389 C.ar    1  UNL1        0.1602
      6 F         144.0618  144.5944  164.9082 F       1  UNL1       -0.2027
      7 C         142.7625  142.8671  163.4666 C.ar    1  UNL1        0.1534
      8 C         142.1720  141.4987  163.2973 C.ar    1  UNL1        0.0351
      9 C         142.2903  140.4891  164.4003 C.ar    1  UNL1        0.0722
     10 CL        141.6998  139.1206  164.2310 Cl      1  UNL1       -0.0809
     11 S         142.6441  143.8767  162.3636 S.O2    1  UNL1        0.0769
     12 O         143.7823  143.2199  161.6403 O.2     1  UNL1       -0.1498
     13 O         141.5060  144.5335  163.0869 O.2     1  UNL1       -0.1498
     14 N         142.5258  144.8864  161.2605 N.pl3   1  UNL1       -0.1984
     15 H         143.0465  145.7210  161.2992 H       1  UNL1        0.1753
     16 C         141.6143  144.6242  160.0985 C.ar    1  UNL1        0.1542
     17 C         140.5962  143.5265  160.0066 C.ar    1  UNL1        0.0725
     18 S         139.9134  143.6376  158.6756 S.2     1  UNL1       -0.0625
     19 C         140.5095  144.8041  157.9449 C.ar    1  UNL1        0.1360
     20 N         141.5607  145.4139  158.8242 N.ar    1  UNL1       -0.2203
     21 C         142.1128  139.8231  167.8895 C.3     1  UNL1        0.0927
     22 N         143.7025  140.6904  170.2813 N.3     1  UNL1       -0.3219
     23 C         142.5576  141.5299  169.7971 C.3     1  UNL1        0.0568
     24 C         142.2075  142.8030  170.5088 C.3     1  UNL1        0.0205
     25 C         141.0626  143.6425  170.0246 C.3     1  UNL1        0.0271
     26 C         140.2678  143.2089  168.8287 C.2     1  UNL1       -0.0303
     27 C         140.6179  141.9358  168.1170 C.2     1  UNL1       -0.0238
     28 C         141.7628  141.0963  168.6012 C.3     1  UNL1        0.0557
     29 H         144.1266  141.1319  171.0971 H       1  UNL1        0.1188
     30 H         144.3985  140.6049  169.5406 H       1  UNL1        0.1188
     31 C         139.8231  141.5021  166.9211 C.ar    1  UNL1       -0.0040
     32 C         139.2193  140.1296  166.8793 C.ar    1  UNL1        0.0020
     33 C         138.4244  139.6959  165.6834 C.ar    1  UNL1        0.0296
     34 C         138.2334  140.6348  164.5292 C.ar    1  UNL1        0.1401
     35 F         137.4386  140.2011  163.3333 F       1  UNL1       -0.2042
     36 C         138.8373  142.0073  164.5710 C.ar    1  UNL1        0.0296
     37 C         139.6320  142.4409  165.7669 C.ar    1  UNL1        0.0020
@<TRIPOS>BOND
     1    23    22    1
     2    23    24    1
     3    24    25    1
     4    25    26    1
     5    26    27    2
     6    27    31    1
     7    31    32   ar
     8    32    33   ar
     9    33    34   ar
    10    34    35    1
    11    34    36   ar
    12    36    37   ar
    13    27    28    1
    14    28    21    1
    15    21     1    1
    16     1     3    1
    17     3     4   ar
    18     4     5   ar
    19     5     6    1
    20     5     7   ar
    21     7    11    1
    22    11    12    2
    23    11    13    2
    24    11    14    1
    25    14    16    1
    26    16    17   ar
    27    17    18   ar
    28    18    19   ar
    29    19    20   ar
    30     7     8   ar
    31     8     9   ar
    32     9    10    1
    33    28    23    1
    34     9     3   ar
    35    37    31   ar
    36    20    16   ar
    37    22    29    1
    38    22    30    1
    39     1     2    1
    40    14    15    1
@<TRIPOS>MOLECULE
*****
 37 40 0 0 0
SMALL
GASTEIGER

@<TRIPOS>ATOM
      1 N         143.0183  141.2798  166.3173 N.pl3   1  UNL1       -0.3316
      2 H         143.7632  141.5208  166.9142 H       1  UNL1        0.1468
      3 C         142.7176  142.1242  165.1146 C.ar    1  UNL1        0.0577
      4 C         141.5849  141.7550  164.2033 C.ar    1  UNL1        0.0462
      5 C         141.2842  142.5995  163.0005 C.ar    1  UNL1        0.1602
      6 F         140.1515  142.2303  162.0891 F       1  UNL1       -0.2027
      7 C         142.1163  143.8130  162.7092 C.ar    1  UNL1        0.1534
      8 C         143.2490  144.1822  163.6206 C.ar    1  UNL1        0.0351
      9 C         143.5497  143.3378  164.8233 C.ar    1  UNL1        0.0722
     10 CL        144.6824  143.7070  165.7346 Cl      1  UNL1       -0.0809
     11 S         141.8156  144.6574  161.5065 S.O2    1  UNL1        0.0769
     12 O         140.7425  145.3700  162.2750 O.2     1  UNL1       -0.1498
     13 O         142.8886  143.9448  160.7379 O.2     1  UNL1       -0.1498
     14 N         141.5148  145.5019  160.3037 N.pl3   1  UNL1       -0.1984
     15 H         141.7887  146.4473  160.2851 H       1  UNL1        0.1753
     16 C         140.7968  144.9058  159.1294 C.ar    1  UNL1        0.1542
     17 C         141.1076  145.1600  157.6841 C.ar    1  UNL1        0.0725
     18 S         140.1448  144.3621  156.8556 S.2     1  UNL1       -0.0625
     19 C         139.2389  143.6147  157.7888 C.ar    1  UNL1        0.1360
     20 N         139.6419  143.9507  159.1941 N.ar    1  UNL1       -0.2203
     21 C         142.1841  140.0681  166.6106 C.3     1  UNL1        0.0927
     22 N         143.1471  140.5402  169.4124 N.3     1  UNL1       -0.3219
     23 C         141.6864  140.3248  169.1477 C.3     1  UNL1        0.0568
     24 C         140.7073  140.3455  170.2838 C.3     1  UNL1        0.0205
     25 C         139.2466  140.1302  170.0190 C.3     1  UNL1        0.0271
     26 C         138.7651  139.8942  168.6181 C.2     1  UNL1       -0.0303
     27 C         139.7443  139.8735  167.4821 C.2     1  UNL1       -0.0238
     28 C         141.2049  140.0888  167.7468 C.3     1  UNL1        0.0557
     29 H         143.2940  140.6840  170.4115 H       1  UNL1        0.1188
     30 H         143.4681  141.3615  168.8999 H       1  UNL1        0.1188
     31 C         139.2628  139.6375  166.0811 C.ar    1  UNL1       -0.0040
     32 C         138.5035  140.7103  165.3583 C.ar    1  UNL1        0.0020
     33 C         138.0220  140.4743  163.9574 C.ar    1  UNL1        0.0296
     34 C         138.2999  139.1655  163.2793 C.ar    1  UNL1        0.1401
     35 F         137.8185  138.9294  161.8784 F       1  UNL1       -0.2042
     36 C         139.0593  138.0927  164.0022 C.ar    1  UNL1        0.0296
     37 C         139.5408  138.3287  165.4031 C.ar    1  UNL1        0.0020
@<TRIPOS>BOND
     1    23    22    1
     2    23    24    1
     3    24    25    1
     4    25    26    1
     5    26    27    2
     6    27    31    1
     7    31    32   ar
     8    32    33   ar
     9    33    34   ar
    10    34    35    1
    11    34    36   ar
    12    36    37   ar
    13    27    28    1
    14    28    21    1
    15    21     1    1
    16     1     3    1
    17     3     4   ar
    18     4     5   ar
    19     5     6    1
    20     5     7   ar
    21     7    11    1
    22    11    12    2
    23    11    13    2
    24    11    14    1
    25    14    16    1
    26    16    17   ar
    27    17    18   ar
    28    18    19   ar
    29    19    20   ar
    30     7     8   ar
    31     8     9   ar
    32     9    10    1
    33    28    23    1
    34     9     3   ar
    35    37    31   ar
    36    20    16   ar
    37    22    29    1
    38    22    30    1
    39     1     2    1
    40    14    15    1
@<TRIPOS>MOLECULE
*****
 37 40 0 0 0
SMALL
GASTEIGER

@<TRIPOS>ATOM
      1 N         138.9799  140.6520  165.9195 N.pl3   1  UNL1       -0.3316
      2 H         138.0517  140.6105  166.2448 H       1  UNL1        0.1468
      3 C         139.3673  141.6666  164.8849 C.ar    1  UNL1        0.0577
      4 C         139.2269  141.3425  163.4270 C.ar    1  UNL1        0.0462
      5 C         139.6143  142.3573  162.3924 C.ar    1  UNL1        0.1602
      6 F         139.4738  142.0332  160.9346 F       1  UNL1       -0.2027
      7 C         140.1422  143.6960  162.8157 C.ar    1  UNL1        0.1534
      8 C         140.2827  144.0200  164.2735 C.ar    1  UNL1        0.0351
      9 C         139.8953  143.0054  165.3081 C.ar    1  UNL1        0.0722
     10 CL        140.0357  143.3295  166.7659 Cl      1  UNL1       -0.0809
     11 S         140.5296  144.7106  161.7811 S.O2    1  UNL1        0.0769
     12 O         139.1291  145.2479  161.7836 O.2     1  UNL1       -0.1498
     13 O         141.9300  144.1733  161.7786 O.2     1  UNL1       -0.1498
     14 N         140.9169  145.7253  160.7464 N.pl3   1  UNL1       -0.1984
     15 H         141.0423  146.6673  161.0035 H       1  UNL1        0.1753
     16 C         141.1133  145.3046  159.3201 C.ar    1  UNL1        0.1542
     17 C         140.2366  144.3619  158.5502 C.ar    1  UNL1        0.0725
     18 S         140.8023  144.2275  157.1674 S.2     1  UNL1       -0.0625
     19 C         142.0286  145.0871  157.0828 C.ar    1  UNL1        0.1360
     20 N         142.2209  145.7528  158.4131 N.ar    1  UNL1       -0.2203
     21 C         140.0068  139.7006  166.4584 C.3     1  UNL1        0.0927
     22 N         138.4556  139.5834  169.0235 N.3     1  UNL1       -0.3219
     23 C         139.9138  139.9346  169.0442 C.3     1  UNL1        0.0568
     24 C         140.5964  140.2271  170.3475 C.3     1  UNL1        0.0205
     25 C         142.0545  140.5782  170.3682 C.3     1  UNL1        0.0271
     26 C         142.8301  140.6368  169.0856 C.2     1  UNL1       -0.0303
     27 C         142.1476  140.3443  167.7824 C.2     1  UNL1       -0.0238
     28 C         140.6894  139.9932  167.7617 C.3     1  UNL1        0.0557
     29 H         138.0907  139.5904  169.9760 H       1  UNL1        0.1188
     30 H         138.3353  138.6543  168.6201 H       1  UNL1        0.1188
     31 C         142.9232  140.4029  166.4998 C.ar    1  UNL1       -0.0040
     32 C         143.4505  139.1410  165.8839 C.ar    1  UNL1        0.0020
     33 C         144.2261  139.1996  164.6012 C.ar    1  UNL1        0.0296
     34 C         144.4744  140.5202  163.9346 C.ar    1  UNL1        0.1401
     35 F         145.2499  140.5788  162.6520 F       1  UNL1       -0.2042
     36 C         143.9470  141.7822  164.5506 C.ar    1  UNL1        0.0296
     37 C         143.1714  141.7235  165.8331 C.ar    1  UNL1        0.0020
@<TRIPOS>BOND
     1    23    22    1
     2    23    24    1
     3    24    25    1
     4    25    26    1
     5    26    27    2
     6    27    31    1
     7    31    32   ar
     8    32    33   ar
     9    33    34   ar
    10    34    35    1
    11    34    36   ar
    12    36    37   ar
    13    27    28    1
    14    28    21    1
    15    21     1    1
    16     1     3    1
    17     3     4   ar
    18     4     5   ar
    19     5     6    1
    20     5     7   ar
    21     7    11    1
    22    11    12    2
    23    11    13    2
    24    11    14    1
    25    14    16    1
    26    16    17   ar
    27    17    18   ar
    28    18    19   ar
    29    19    20   ar
    30     7     8   ar
    31     8     9   ar
    32     9    10    1
    33    28    23    1
    34     9     3   ar
    35    37    31   ar
    36    20    16   ar
    37    22    29    1
    38    22    30    1
    39     1     2    1
    40    14    15    1
@<TRIPOS>MOLECULE
*****
 37 40 0 0 0
SMALL
GASTEIGER

@<TRIPOS>ATOM
      1 N         143.4913  139.5375  166.9430 N.pl3   1  UNL1       -0.3316
      2 H         144.4115  139.7230  167.2395 H       1  UNL1        0.1468
      3 C         143.2154  139.2315  165.5007 C.ar    1  UNL1        0.0577
      4 C         142.2780  138.1187  165.1361 C.ar    1  UNL1        0.0462
      5 C         142.0022  137.8127  163.6937 C.ar    1  UNL1        0.1602
      6 F         141.0648  136.6999  163.3290 F       1  UNL1       -0.2027
      7 C         142.6637  138.6195  162.6160 C.ar    1  UNL1        0.1534
      8 C         143.6011  139.7323  162.9807 C.ar    1  UNL1        0.0351
      9 C         143.8770  140.0383  164.4230 C.ar    1  UNL1        0.0722
     10 CL        144.8143  141.1511  164.7876 Cl      1  UNL1       -0.0809
     11 S         142.3879  138.3136  161.1738 S.O2    1  UNL1        0.0769
     12 O         141.1297  139.1274  161.2417 O.2     1  UNL1       -0.1498
     13 O         143.6460  137.4997  161.1058 O.2     1  UNL1       -0.1498
     14 N         142.1119  138.0076  159.7314 N.pl3   1  UNL1       -0.1984
     15 H         141.5115  137.2651  159.4918 H       1  UNL1        0.1753
     16 C         142.7509  138.8329  158.6541 C.ar    1  UNL1        0.1542
     17 C         142.3495  138.8600  157.2091 C.ar    1  UNL1        0.0725
     18 S         143.2540  139.8199  156.4946 S.2     1  UNL1       -0.0625
     19 C         144.2145  140.3860  157.4980 C.ar    1  UNL1        0.1360
     20 N         143.9037  139.7761  158.8327 N.ar    1  UNL1       -0.2203
     21 C         142.3650  139.5608  167.9335 C.3     1  UNL1        0.0927
     22 N         143.6617  140.7880  170.3444 N.3     1  UNL1       -0.3219
     23 C         142.5132  141.4830  169.6751 C.3     1  UNL1        0.0568
     24 C         142.0130  142.7915  170.2113 C.3     1  UNL1        0.0205
     25 C         140.8644  143.4864  169.5420 C.3     1  UNL1        0.0271
     26 C         140.2160  142.8728  168.3366 C.2     1  UNL1       -0.0303
     27 C         140.7163  141.5643  167.8005 C.2     1  UNL1       -0.0238
     28 C         141.8648  140.8694  168.4697 C.3     1  UNL1        0.0557
     29 H         143.9769  141.3420  171.1407 H       1  UNL1        0.1188
     30 H         144.4282  140.6811  169.6799 H       1  UNL1        0.1188
     31 C         140.0679  140.9506  166.5950 C.ar    1  UNL1       -0.0040
     32 C         140.4381  141.4251  165.2210 C.ar    1  UNL1        0.0020
     33 C         139.7898  140.8114  164.0156 C.ar    1  UNL1        0.0296
     34 C         138.7712  139.7233  164.1841 C.ar    1  UNL1        0.1401
     35 F         138.1228  139.1096  162.9787 F       1  UNL1       -0.2042
     36 C         138.4010  139.2488  165.5581 C.ar    1  UNL1        0.0296
     37 C         139.0493  139.8624  166.7635 C.ar    1  UNL1        0.0020
@<TRIPOS>BOND
     1    23    22    1
     2    23    24    1
     3    24    25    1
     4    25    26    1
     5    26    27    2
     6    27    31    1
     7    31    32   ar
     8    32    33   ar
     9    33    34   ar
    10    34    35    1
    11    34    36   ar
    12    36    37   ar
    13    27    28    1
    14    28    21    1
    15    21     1    1
    16     1     3    1
    17     3     4   ar
    18     4     5   ar
    19     5     6    1
    20     5     7   ar
    21     7    11    1
    22    11    12    2
    23    11    13    2
    24    11    14    1
    25    14    16    1
    26    16    17   ar
    27    17    18   ar
    28    18    19   ar
    29    19    20   ar
    30     7     8   ar
    31     8     9   ar
    32     9    10    1
    33    28    23    1
    34     9     3   ar
    35    37    31   ar
    36    20    16   ar
    37    22    29    1
    38    22    30    1
    39     1     2    1
    40    14    15    1
@<TRIPOS>MOLECULE
*****
 37 40 0 0 0
SMALL
GASTEIGER

@<TRIPOS>ATOM
      1 N         142.5999  139.7969  164.6084 N.pl3   1  UNL1       -0.3316
      2 H         143.3954  139.2239  164.5183 H       1  UNL1        0.1468
      3 C         142.3852  140.9369  163.6575 C.ar    1  UNL1        0.0577
      4 C         141.3438  140.8313  162.5830 C.ar    1  UNL1        0.0462
      5 C         141.1291  141.9714  161.6320 C.ar    1  UNL1        0.1602
      6 F         140.0878  141.8658  160.5576 F       1  UNL1       -0.2027
      7 C         141.9558  143.2169  161.7556 C.ar    1  UNL1        0.1534
      8 C         142.9971  143.3225  162.8300 C.ar    1  UNL1        0.0351
      9 C         143.2118  142.1825  163.7809 C.ar    1  UNL1        0.0722
     10 CL        144.2532  142.2881  164.8554 Cl      1  UNL1       -0.0809
     11 S         141.7411  144.3569  160.8046 S.O2    1  UNL1        0.0769
     12 O         140.5505  144.7986  161.6030 O.2     1  UNL1       -0.1498
     13 O         142.9316  143.9152  160.0063 O.2     1  UNL1       -0.1498
     14 N         141.5263  145.4969  159.8537 N.pl3   1  UNL1       -0.1984
     15 H         141.8167  146.4048  160.1000 H       1  UNL1        0.1753
     16 C         140.8690  145.2537  158.5275 C.ar    1  UNL1        0.1542
     17 C         141.1010  146.0396  157.2711 C.ar    1  UNL1        0.0725
     18 S         140.2396  145.4534  156.1919 S.2     1  UNL1       -0.0625
     19 C         139.4752  144.3053  156.7814 C.ar    1  UNL1        0.1360
     20 N         139.8642  144.1818  158.2249 N.ar    1  UNL1       -0.2203
     21 C         141.6027  139.5300  165.6966 C.3     1  UNL1        0.0927
     22 N         143.3718  138.4857  167.8829 N.3     1  UNL1       -0.3219
     23 C         142.5838  139.7447  168.0927 C.3     1  UNL1        0.0568
     24 C         142.6803  140.4815  169.3957 C.3     1  UNL1        0.0205
     25 C         141.8923  141.7405  169.6055 C.3     1  UNL1        0.0271
     26 C         141.0077  142.2626  168.5125 C.2     1  UNL1       -0.0303
     27 C         140.9112  141.5258  167.2095 C.2     1  UNL1       -0.0238
     28 C         141.6992  140.2668  166.9996 C.3     1  UNL1        0.0557
     29 H         143.9136  138.2799  168.7222 H       1  UNL1        0.1188
     30 H         144.0039  138.6082  167.0917 H       1  UNL1        0.1188
     31 C         140.0266  142.0479  166.1163 C.ar    1  UNL1       -0.0040
     32 C         138.9230  141.1909  165.5709 C.ar    1  UNL1        0.0020
     33 C         138.0384  141.7130  164.4778 C.ar    1  UNL1        0.0296
     34 C         138.2575  143.0922  163.9301 C.ar    1  UNL1        0.1401
     35 F         137.3729  143.6143  162.8370 F       1  UNL1       -0.2042
     36 C         139.3611  143.9492  164.4756 C.ar    1  UNL1        0.0296
     37 C         140.2457  143.4270  165.5687 C.ar    1  UNL1        0.0020
@<TRIPOS>BOND
     1    23    22    1
     2    23    24    1
     3    24    25    1
     4    25    26    1
     5    26    27    2
     6    27    31    1
     7    31    32   ar
     8    32    33   ar
     9    33    34   ar
    10    34    35    1
    11    34    36   ar
    12    36    37   ar
    13    27    28    1
    14    28    21    1
    15    21     1    1
    16     1     3    1
    17     3     4   ar
    18     4     5   ar
    19     5     6    1
    20     5     7   ar
    21     7    11    1
    22    11    12    2
    23    11    13    2
    24    11    14    1
    25    14    16    1
    26    16    17   ar
    27    17    18   ar
    28    18    19   ar
    29    19    20   ar
    30     7     8   ar
    31     8     9   ar
    32     9    10    1
    33    28    23    1
    34     9     3   ar
    35    37    31   ar
    36    20    16   ar
    37    22    29    1
    38    22    30    1
    39     1     2    1
    40    14    15    1
