@<TRIPOS>MOLECULE
*****
 41 44 0 0 0
SMALL
GASTEIGER

@<TRIPOS>ATOM
      1 C         139.5216  139.1706  160.5148 C.ar    1  UNL1        0.0597
      2 C         139.4524  138.3145  161.7446 C.ar    1  UNL1        0.0422
      3 C         138.7572  138.8217  162.9732 C.ar    1  UNL1        0.1486
      4 C         138.1312  140.1848  162.9720 C.ar    1  UNL1        0.0743
      5 C         138.2004  141.0408  161.7422 C.ar    1  UNL1        0.1416
      6 C         138.8956  140.5337  160.5136 C.ar    1  UNL1        0.0416
      7 N         141.7155  138.6397  159.2283 N.am    1  UNL1       -0.2644
      8 C         140.2169  138.6634  159.2861 C.2     1  UNL1        0.2508
      9 O         139.4133  138.1801  158.1153 O.2     1  UNL1       -0.2698
     10 H         142.2429  138.9569  159.9967 H       1  UNL1        0.1566
     11 N         143.4583  136.6550  156.3841 N.ar    1  UNL1       -0.2357
     12 C         143.5028  138.0497  155.8337 C.ar    1  UNL1        0.0988
     13 C         142.8553  138.9629  156.8322 C.ar    1  UNL1        0.0565
     14 C         142.4108  138.1326  157.9996 C.ar    1  UNL1        0.1557
     15 N         142.7834  136.7063  157.7227 N.ar    1  UNL1       -0.1534
     16 C         143.9946  135.4250  155.7137 C.3     1  UNL1        0.2423
     17 P         143.1107  134.2279  155.5247 P.3     1  UNL1        0.3677
     18 O         142.2269  133.0308  155.3357 O.2     1  UNL1       -0.2557
     19 O         143.4885  133.7334  156.8896 O.3     1  UNL1       -0.2928
     20 C         145.3136  132.1107  157.7759 C.3     1  UNL1        0.0352
     21 C         144.0136  132.3391  157.0633 C.3     1  UNL1        0.1515
     22 O         142.7330  134.7224  154.1599 O.3     1  UNL1       -0.2928
     23 C         141.2907  134.9542  153.8188 C.3     1  UNL1        0.1515
     24 C         140.5281  136.0557  154.4934 C.3     1  UNL1        0.0352
     25 O         138.6880  137.9657  164.2030 O.3     1  UNL1       -0.4502
     26 C         138.8892  138.5799  165.5566 C.ar    1  UNL1        0.1835
     27 C         137.8294  138.4398  166.6089 C.ar    1  UNL1        0.1397
     28 N         138.0307  139.0541  167.9625 N.ar    1  UNL1       -0.2180
     29 C         139.2917  139.8084  168.2638 C.ar    1  UNL1        0.2173
     30 N         140.3515  139.9484  167.2115 N.ar    1  UNL1       -0.2180
     31 C         140.1502  139.3342  165.8580 C.ar    1  UNL1        0.1397
     32 C         139.4930  140.4226  169.6174 C.2     1  UNL1        0.2851
     33 O         139.2348  139.6138  170.8539 O.2     1  UNL1       -0.2665
     34 N         139.9525  141.8458  169.7344 N.am    1  UNL1       -0.2735
     35 C         140.3006  142.9315  168.7597 C.3     1  UNL1        0.0956
     36 C         140.6023  143.8584  169.8999 C.3     1  UNL1        0.0430
     37 C         140.2541  142.7726  170.8746 C.3     1  UNL1        0.0956
     38 O         137.5744  142.4039  161.7410 O.3     1  UNL1       -0.4791
     39 C         138.2518  143.5410  162.4468 C.3     1  UNL1        0.1661
     40 C         137.7840  143.9643  163.8077 C.3     1  UNL1        0.0472
     41 C         139.3971  144.2547  161.7918 C.3     1  UNL1        0.0472
@<TRIPOS>BOND
     1    20    21    1
     2    21    19    1
     3    19    17    1
     4    17    18    2
     5    17    16    1
     6    16    11    1
     7    11    12   ar
     8    12    13   ar
     9    13    14   ar
    10    14     7    1
    11     7     8   am
    12     8     9    2
    13     8     1    1
    14     1     2   ar
    15     2     3   ar
    16     3    25    1
    17    25    26    1
    18    26    27   ar
    19    27    28   ar
    20    28    29   ar
    21    29    32    1
    22    32    33    2
    23    32    34   am
    24    34    35    1
    25    35    36    1
    26    36    37    1
    27    29    30   ar
    28    30    31   ar
    29     3     4   ar
    30     4     5   ar
    31     5    38    1
    32    38    39    1
    33    39    40    1
    34    39    41    1
    35     5     6   ar
    36    14    15   ar
    37    17    22    1
    38    22    23    1
    39    23    24    1
    40    15    11   ar
    41     6     1   ar
    42    31    26   ar
    43    37    34    1
    44     7    10    1
@<TRIPOS>MOLECULE
*****
 41 44 0 0 0
SMALL
GASTEIGER

@<TRIPOS>ATOM
      1 C         139.4952  139.2195  160.4567 C.ar    1  UNL1        0.0597
      2 C         139.4567  138.3528  161.6803 C.ar    1  UNL1        0.0422
      3 C         138.7856  138.8460  162.9278 C.ar    1  UNL1        0.1486
      4 C         138.1531  140.2059  162.9517 C.ar    1  UNL1        0.0743
      5 C         138.1916  141.0726  161.7280 C.ar    1  UNL1        0.1416
      6 C         138.8627  140.5794  160.4805 C.ar    1  UNL1        0.0416
      7 N         141.6630  138.7320  159.1101 N.am    1  UNL1       -0.2644
      8 C         140.1663  138.7262  159.2091 C.2     1  UNL1        0.2508
      9 O         139.3407  138.2272  158.0605 O.2     1  UNL1       -0.2698
     10 H         142.2049  139.0596  159.8640 H       1  UNL1        0.1566
     11 N         143.3797  136.7849  156.2244 N.ar    1  UNL1       -0.2357
     12 C         143.3539  138.1749  155.6610 C.ar    1  UNL1        0.0988
     13 C         142.7077  139.0735  156.6735 C.ar    1  UNL1        0.0565
     14 C         142.3341  138.2388  157.8625 C.ar    1  UNL1        0.1557
     15 N         142.7495  136.8244  157.5850 N.ar    1  UNL1       -0.1534
     16 C         143.9378  135.5690  155.5463 C.3     1  UNL1        0.2423
     17 P         143.1606  134.2860  155.5481 P.3     1  UNL1        0.3677
     18 O         142.3835  133.0030  155.5499 O.2     1  UNL1       -0.2557
     19 O         142.0299  134.9698  154.8382 O.3     1  UNL1       -0.2928
     20 C         140.8507  135.6619  152.6291 C.3     1  UNL1        0.0352
     21 C         141.9760  134.9695  153.3392 C.3     1  UNL1        0.1515
     22 O         144.2913  133.6022  156.2580 O.3     1  UNL1       -0.2928
     23 C         144.0048  132.6428  157.3750 C.3     1  UNL1        0.1515
     24 C         145.1033  131.7815  157.9241 C.3     1  UNL1        0.0352
     25 O         138.7470  137.9794  164.1516 O.3     1  UNL1       -0.4502
     26 C         138.9418  138.5885  165.5084 C.ar    1  UNL1        0.1835
     27 C         137.8642  138.4706  166.5452 C.ar    1  UNL1        0.1397
     28 N         138.0590  139.0797  167.9021 N.ar    1  UNL1       -0.2180
     29 C         139.3315  139.8068  168.2221 C.ar    1  UNL1        0.2173
     30 N         140.4090  139.9247  167.1853 N.ar    1  UNL1       -0.2180
     31 C         140.2142  139.3155  165.8285 C.ar    1  UNL1        0.1397
     32 C         139.5263  140.4159  169.5789 C.2     1  UNL1        0.2851
     33 O         139.3002  139.5907  170.8110 O.2     1  UNL1       -0.2665
     34 N         139.9471  141.8503  169.7037 N.am    1  UNL1       -0.2735
     35 C         140.2575  142.9528  168.7350 C.3     1  UNL1        0.0956
     36 C         140.5423  143.8787  169.8802 C.3     1  UNL1        0.0430
     37 C         140.2320  142.7763  170.8489 C.3     1  UNL1        0.0956
     38 O         137.5591  142.4325  161.7519 O.3     1  UNL1       -0.4791
     39 C         138.2296  143.5589  162.4809 C.3     1  UNL1        0.1661
     40 C         137.7423  143.9687  163.8391 C.3     1  UNL1        0.0472
     41 C         139.3876  144.2755  161.8518 C.3     1  UNL1        0.0472
@<TRIPOS>BOND
     1    20    21    1
     2    21    19    1
     3    19    17    1
     4    17    18    2
     5    17    16    1
     6    16    11    1
     7    11    12   ar
     8    12    13   ar
     9    13    14   ar
    10    14     7    1
    11     7     8   am
    12     8     9    2
    13     8     1    1
    14     1     2   ar
    15     2     3   ar
    16     3    25    1
    17    25    26    1
    18    26    27   ar
    19    27    28   ar
    20    28    29   ar
    21    29    32    1
    22    32    33    2
    23    32    34   am
    24    34    35    1
    25    35    36    1
    26    36    37    1
    27    29    30   ar
    28    30    31   ar
    29     3     4   ar
    30     4     5   ar
    31     5    38    1
    32    38    39    1
    33    39    40    1
    34    39    41    1
    35     5     6   ar
    36    14    15   ar
    37    17    22    1
    38    22    23    1
    39    23    24    1
    40    15    11   ar
    41     6     1   ar
    42    31    26   ar
    43    37    34    1
    44     7    10    1
@<TRIPOS>MOLECULE
*****
 41 44 0 0 0
SMALL
GASTEIGER

@<TRIPOS>ATOM
      1 C         139.1376  140.1635  160.6794 C.ar    1  UNL1        0.0597
      2 C         139.0986  139.1784  161.8099 C.ar    1  UNL1        0.0422
      3 C         138.4888  139.5683  163.1237 C.ar    1  UNL1        0.1486
      4 C         137.9181  140.9433  163.3071 C.ar    1  UNL1        0.0743
      5 C         137.9572  141.9284  162.1766 C.ar    1  UNL1        0.1416
      6 C         138.5669  141.5385  160.8628 C.ar    1  UNL1        0.0416
      7 N         139.1669  138.6373  158.5771 N.am    1  UNL1       -0.2644
      8 C         139.7474  139.7737  159.3655 C.2     1  UNL1        0.2508
      9 O         140.9376  140.5202  158.8401 O.2     1  UNL1       -0.2698
     10 H         138.3857  138.1473  158.9219 H       1  UNL1        0.1566
     11 N         141.2819  137.3155  155.6030 N.ar    1  UNL1       -0.2357
     12 C         140.1479  137.9796  154.8796 C.ar    1  UNL1        0.0988
     13 C         139.2176  138.5556  155.9058 C.ar    1  UNL1        0.0565
     14 C         139.7767  138.2474  157.2632 C.ar    1  UNL1        0.1557
     15 N         141.0524  137.4810  157.0760 N.ar    1  UNL1       -0.1534
     16 C         142.4417  136.6098  154.9652 C.3     1  UNL1        0.2423
     17 P         143.2757  135.6582  155.7707 P.3     1  UNL1        0.3677
     18 O         144.1096  134.7065  156.5762 O.2     1  UNL1       -0.2557
     19 O         144.4172  136.6307  155.7379 O.3     1  UNL1       -0.2928
     20 C         145.1378  139.0944  155.3371 C.3     1  UNL1        0.0352
     21 C         144.2874  137.9139  154.9720 C.3     1  UNL1        0.1515
     22 O         142.1341  134.6856  155.8035 O.3     1  UNL1       -0.2928
     23 C         142.3864  133.2437  156.1313 C.3     1  UNL1        0.1515
     24 C         141.8296  132.1656  155.2495 C.3     1  UNL1        0.0352
     25 O         138.4498  138.5831  164.2542 O.3     1  UNL1       -0.4502
     26 C         138.8669  139.0055  165.6318 C.ar    1  UNL1        0.1835
     27 C         137.9108  138.8694  166.7796 C.ar    1  UNL1        0.1397
     28 N         138.3278  139.2917  168.1572 N.ar    1  UNL1       -0.2180
     29 C         139.7010  139.8502  168.3869 C.ar    1  UNL1        0.2173
     30 N         140.6570  139.9863  167.2391 N.ar    1  UNL1       -0.2180
     31 C         140.2399  139.5639  165.8615 C.ar    1  UNL1        0.1397
     32 C         140.1181  140.2725  169.7645 C.2     1  UNL1        0.2851
     33 O         139.5748  139.5563  170.9652 O.2     1  UNL1       -0.2665
     34 N         141.0784  141.4112  169.9412 N.am    1  UNL1       -0.2735
     35 C         141.8091  142.3363  169.0137 C.3     1  UNL1        0.0956
     36 C         142.4366  143.0215  170.1913 C.3     1  UNL1        0.0430
     37 C         141.7060  142.0963  171.1189 C.3     1  UNL1        0.0956
     38 O         137.3865  143.3034  162.3600 O.3     1  UNL1       -0.4791
     39 C         138.1155  144.3126  163.1967 C.3     1  UNL1        0.1661
     40 C         137.8627  144.3856  164.6734 C.3     1  UNL1        0.0472
     41 C         139.0973  145.2488  162.5566 C.3     1  UNL1        0.0472
@<TRIPOS>BOND
     1    20    21    1
     2    21    19    1
     3    19    17    1
     4    17    18    2
     5    17    16    1
     6    16    11    1
     7    11    12   ar
     8    12    13   ar
     9    13    14   ar
    10    14     7    1
    11     7     8   am
    12     8     9    2
    13     8     1    1
    14     1     2   ar
    15     2     3   ar
    16     3    25    1
    17    25    26    1
    18    26    27   ar
    19    27    28   ar
    20    28    29   ar
    21    29    32    1
    22    32    33    2
    23    32    34   am
    24    34    35    1
    25    35    36    1
    26    36    37    1
    27    29    30   ar
    28    30    31   ar
    29     3     4   ar
    30     4     5   ar
    31     5    38    1
    32    38    39    1
    33    39    40    1
    34    39    41    1
    35     5     6   ar
    36    14    15   ar
    37    17    22    1
    38    22    23    1
    39    23    24    1
    40    15    11   ar
    41     6     1   ar
    42    31    26   ar
    43    37    34    1
    44     7    10    1
@<TRIPOS>MOLECULE
*****
 41 44 0 0 0
SMALL
GASTEIGER

@<TRIPOS>ATOM
      1 C         138.2469  140.4742  160.8778 C.ar    1  UNL1        0.0597
      2 C         138.3425  139.4329  161.9531 C.ar    1  UNL1        0.0422
      3 C         138.1824  139.8241  163.3923 C.ar    1  UNL1        0.1486
      4 C         137.9267  141.2567  163.7561 C.ar    1  UNL1        0.0743
      5 C         137.8311  142.2980  162.6808 C.ar    1  UNL1        0.1416
      6 C         137.9912  141.9068  161.2416 C.ar    1  UNL1        0.0416
      7 N         139.6636  139.4035  158.9813 N.am    1  UNL1       -0.2644
      8 C         138.4070  140.0830  159.4385 C.2     1  UNL1        0.2508
      9 O         137.3104  140.3713  158.4565 O.2     1  UNL1       -0.2698
     10 H         140.3834  139.2143  159.6258 H       1  UNL1        0.1566
     11 N         139.8281  137.7190  155.4883 N.ar    1  UNL1       -0.2357
     12 C         140.3121  139.1018  155.1663 C.ar    1  UNL1        0.0988
     13 C         140.3094  139.9012  156.4357 C.ar    1  UNL1        0.0565
     14 C         139.8237  139.0123  157.5420 C.ar    1  UNL1        0.1557
     15 N         139.5263  137.6637  156.9566 N.ar    1  UNL1       -0.1534
     16 C         139.6732  136.5898  154.5133 C.3     1  UNL1        0.2423
     17 P         140.8852  135.8705  153.9998 P.3     1  UNL1        0.3677
     18 O         142.0973  135.1512  153.4864 O.2     1  UNL1       -0.2557
     19 O         140.6533  136.4524  152.6369 O.3     1  UNL1       -0.2928
     20 C         142.5318  138.2431  152.7566 C.3     1  UNL1        0.0352
     21 C         141.7344  137.2478  151.9671 C.3     1  UNL1        0.1515
     22 O         141.1172  135.2886  155.3628 O.3     1  UNL1       -0.2928
     23 C         142.4850  135.3379  155.9765 C.3     1  UNL1        0.1515
     24 C         142.7763  136.3084  157.0825 C.3     1  UNL1        0.0352
     25 O         138.2780  138.7828  164.4677 O.3     1  UNL1       -0.4502
     26 C         138.7630  139.1601  165.8361 C.ar    1  UNL1        0.1835
     27 C         140.1386  139.7315  166.0131 C.ar    1  UNL1        0.1397
     28 N         140.6236  140.1089  167.3814 N.ar    1  UNL1       -0.2180
     29 C         139.7330  139.9148  168.5728 C.ar    1  UNL1        0.2173
     30 N         138.3575  139.3434  168.3958 N.ar    1  UNL1       -0.2180
     31 C         137.8725  138.9660  167.0274 C.ar    1  UNL1        0.1397
     32 C         140.2181  140.2921  169.9411 C.2     1  UNL1        0.2851
     33 O         139.7808  139.4992  171.1369 O.2     1  UNL1       -0.2665
     34 N         141.1403  141.4625  170.1136 N.am    1  UNL1       -0.2735
     35 C         141.7730  142.4598  169.1888 C.3     1  UNL1        0.0956
     36 C         142.4446  143.1176  170.3577 C.3     1  UNL1        0.0430
     37 C         141.8120  142.1204  171.2825 C.3     1  UNL1        0.0956
     38 O         137.5754  143.7306  163.0446 O.3     1  UNL1       -0.4791
     39 C         138.6474  144.5367  163.7161 C.3     1  UNL1        0.1661
     40 C         138.6289  144.7165  165.2052 C.3     1  UNL1        0.0472
     41 C         139.7380  145.1630  162.8985 C.3     1  UNL1        0.0472
@<TRIPOS>BOND
     1    20    21    1
     2    21    19    1
     3    19    17    1
     4    17    18    2
     5    17    16    1
     6    16    11    1
     7    11    12   ar
     8    12    13   ar
     9    13    14   ar
    10    14     7    1
    11     7     8   am
    12     8     9    2
    13     8     1    1
    14     1     2   ar
    15     2     3   ar
    16     3    25    1
    17    25    26    1
    18    26    27   ar
    19    27    28   ar
    20    28    29   ar
    21    29    32    1
    22    32    33    2
    23    32    34   am
    24    34    35    1
    25    35    36    1
    26    36    37    1
    27    29    30   ar
    28    30    31   ar
    29     3     4   ar
    30     4     5   ar
    31     5    38    1
    32    38    39    1
    33    39    40    1
    34    39    41    1
    35     5     6   ar
    36    14    15   ar
    37    17    22    1
    38    22    23    1
    39    23    24    1
    40    15    11   ar
    41     6     1   ar
    42    31    26   ar
    43    37    34    1
    44     7    10    1
@<TRIPOS>MOLECULE
*****
 41 44 0 0 0
SMALL
GASTEIGER

@<TRIPOS>ATOM
      1 C         139.1617  140.2587  160.7683 C.ar    1  UNL1        0.0597
      2 C         139.1353  139.2547  161.8824 C.ar    1  UNL1        0.0422
      3 C         138.5700  139.6327  163.2194 C.ar    1  UNL1        0.1486
      4 C         138.0312  141.0147  163.4422 C.ar    1  UNL1        0.0743
      5 C         138.0576  142.0187  162.3281 C.ar    1  UNL1        0.1416
      6 C         138.6229  141.6407  160.9912 C.ar    1  UNL1        0.0416
      7 N         138.8586  139.2002  158.4150 N.am    1  UNL1       -0.2644
      8 C         139.7270  139.8807  159.4313 C.2     1  UNL1        0.2508
      9 O         141.1608  140.1831  159.1106 O.2     1  UNL1       -0.2698
     10 H         137.9176  139.0017  158.6256 H       1  UNL1        0.1566
     11 N         140.7268  137.7242  155.3496 N.ar    1  UNL1       -0.2357
     12 C         139.8607  138.7570  154.6914 C.ar    1  UNL1        0.0988
     13 C         139.0554  139.4357  155.7597 C.ar    1  UNL1        0.0565
     14 C         139.4239  138.8222  157.0780 C.ar    1  UNL1        0.1557
     15 N         140.4568  137.7645  156.8246 N.ar    1  UNL1       -0.1534
     16 C         141.6931  136.8113  154.6549 C.3     1  UNL1        0.2423
     17 P         143.0491  136.5639  155.2466 P.3     1  UNL1        0.3677
     18 O         144.4051  136.3166  155.8382 O.2     1  UNL1       -0.2557
     19 O         142.5653  135.2611  155.8109 O.3     1  UNL1       -0.2928
     20 C         142.5433  133.3251  154.0785 C.3     1  UNL1        0.0352
     21 C         141.8044  134.3039  154.9421 C.3     1  UNL1        0.1515
     22 O         143.5329  137.8668  154.6822 O.3     1  UNL1       -0.2928
     23 C         144.8682  138.4127  155.0936 C.3     1  UNL1        0.1515
     24 C         144.9905  139.8404  155.5370 C.3     1  UNL1        0.0352
     25 O         138.5435  138.6287  164.3336 O.3     1  UNL1       -0.4502
     26 C         138.9535  139.0341  165.7183 C.ar    1  UNL1        0.1835
     27 C         137.9690  138.9496  166.8470 C.ar    1  UNL1        0.1397
     28 N         138.3789  139.3550  168.2317 N.ar    1  UNL1       -0.2180
     29 C         139.7734  139.8450  168.4879 C.ar    1  UNL1        0.2173
     30 N         140.7578  139.9295  167.3593 N.ar    1  UNL1       -0.2180
     31 C         140.3478  139.5241  165.9745 C.ar    1  UNL1        0.1397
     32 C         140.1833  140.2504  169.8726 C.2     1  UNL1        0.2851
     33 O         139.6445  139.5107  171.0611 O.2     1  UNL1       -0.2665
     34 N         141.1321  141.3956  170.0689 N.am    1  UNL1       -0.2735
     35 C         141.8556  142.3418  169.1572 C.3     1  UNL1        0.0956
     36 C         142.4739  143.0150  170.3465 C.3     1  UNL1        0.0430
     37 C         141.7504  142.0688  171.2582 C.3     1  UNL1        0.0956
     38 O         137.5188  143.4008  162.5510 O.3     1  UNL1       -0.4791
     39 C         138.2982  144.3867  163.3697 C.3     1  UNL1        0.1661
     40 C         138.0785  144.4713  164.8511 C.3     1  UNL1        0.0472
     41 C         139.2975  145.2880  162.7071 C.3     1  UNL1        0.0472
@<TRIPOS>BOND
     1    20    21    1
     2    21    19    1
     3    19    17    1
     4    17    18    2
     5    17    16    1
     6    16    11    1
     7    11    12   ar
     8    12    13   ar
     9    13    14   ar
    10    14     7    1
    11     7     8   am
    12     8     9    2
    13     8     1    1
    14     1     2   ar
    15     2     3   ar
    16     3    25    1
    17    25    26    1
    18    26    27   ar
    19    27    28   ar
    20    28    29   ar
    21    29    32    1
    22    32    33    2
    23    32    34   am
    24    34    35    1
    25    35    36    1
    26    36    37    1
    27    29    30   ar
    28    30    31   ar
    29     3     4   ar
    30     4     5   ar
    31     5    38    1
    32    38    39    1
    33    39    40    1
    34    39    41    1
    35     5     6   ar
    36    14    15   ar
    37    17    22    1
    38    22    23    1
    39    23    24    1
    40    15    11   ar
    41     6     1   ar
    42    31    26   ar
    43    37    34    1
    44     7    10    1
@<TRIPOS>MOLECULE
*****
 41 44 0 0 0
SMALL
GASTEIGER

@<TRIPOS>ATOM
      1 C         141.7963  138.4621  158.2846 C.ar    1  UNL1        0.0597
      2 C         140.4463  138.3930  158.9347 C.ar    1  UNL1        0.0422
      3 C         140.0693  139.3918  159.9884 C.ar    1  UNL1        0.1486
      4 C         141.0422  140.4598  160.3918 C.ar    1  UNL1        0.0743
      5 C         142.3922  140.5289  159.7417 C.ar    1  UNL1        0.1416
      6 C         142.7692  139.5301  158.6881 C.ar    1  UNL1        0.0416
      7 N         141.1215  136.5882  156.6163 N.am    1  UNL1       -0.2644
      8 C         142.1734  137.4633  157.2309 C.2     1  UNL1        0.2508
      9 O         143.6023  137.3396  156.7919 O.2     1  UNL1       -0.2698
     10 H         140.1836  136.6693  156.9045 H       1  UNL1        0.1566
     11 N         142.3502  133.5959  154.4710 N.ar    1  UNL1       -0.2357
     12 C         141.8076  134.5087  153.4115 C.ar    1  UNL1        0.0988
     13 C         141.2813  135.7408  154.0862 C.ar    1  UNL1        0.0565
     14 C         141.4986  135.5893  155.5627 C.ar    1  UNL1        0.1557
     15 N         142.1592  134.2638  155.8004 N.ar    1  UNL1       -0.1534
     16 C         142.9741  132.2514  154.2413 C.3     1  UNL1        0.2423
     17 P         142.9758  131.2280  155.3380 P.3     1  UNL1        0.3677
     18 O         142.9774  130.2047  156.4347 O.2     1  UNL1       -0.2557
     19 O         144.4199  131.5255  155.6135 O.3     1  UNL1       -0.2928
     20 C         144.8422  132.7862  157.8456 C.3     1  UNL1        0.0352
     21 C         144.9280  131.5337  157.0248 C.3     1  UNL1        0.1515
     22 O         141.5316  130.9305  155.0624 O.3     1  UNL1       -0.2928
     23 C         141.0419  129.5128  155.0769 C.3     1  UNL1        0.1515
     24 C         140.9364  128.7426  153.7941 C.3     1  UNL1        0.0352
     25 O         138.7192  139.3226  160.6386 O.3     1  UNL1       -0.4502
     26 C         138.6093  139.2484  162.1327 C.ar    1  UNL1        0.1835
     27 C         138.9678  137.9801  162.8490 C.ar    1  UNL1        0.1397
     28 N         138.8579  137.9059  164.3431 N.ar    1  UNL1       -0.2180
     29 C         138.3895  139.0999  165.1209 C.ar    1  UNL1        0.2173
     30 N         138.0310  140.3681  164.4046 N.ar    1  UNL1       -0.2180
     31 C         138.1409  140.4423  162.9105 C.ar    1  UNL1        0.1397
     32 C         138.2796  139.0257  166.6151 C.2     1  UNL1        0.2851
     33 O         137.2927  138.0907  167.2490 O.2     1  UNL1       -0.2665
     34 N         139.1567  139.8865  167.4753 N.am    1  UNL1       -0.2735
     35 C         140.2246  140.9071  167.2148 C.3     1  UNL1        0.0956
     36 C         140.3969  141.1037  168.6919 C.3     1  UNL1        0.0430
     37 C         139.3290  140.0831  168.9523 C.3     1  UNL1        0.0956
     38 O         143.3651  141.5969  160.1452 O.3     1  UNL1       -0.4791
     39 C         144.0748  141.5057  161.4634 C.3     1  UNL1        0.1661
     40 C         144.4712  142.7567  162.1900 C.3     1  UNL1        0.0472
     41 C         144.3883  140.1634  162.0552 C.3     1  UNL1        0.0472
@<TRIPOS>BOND
     1    20    21    1
     2    21    19    1
     3    19    17    1
     4    17    18    2
     5    17    16    1
     6    16    11    1
     7    11    12   ar
     8    12    13   ar
     9    13    14   ar
    10    14     7    1
    11     7     8   am
    12     8     9    2
    13     8     1    1
    14     1     2   ar
    15     2     3   ar
    16     3    25    1
    17    25    26    1
    18    26    27   ar
    19    27    28   ar
    20    28    29   ar
    21    29    32    1
    22    32    33    2
    23    32    34   am
    24    34    35    1
    25    35    36    1
    26    36    37    1
    27    29    30   ar
    28    30    31   ar
    29     3     4   ar
    30     4     5   ar
    31     5    38    1
    32    38    39    1
    33    39    40    1
    34    39    41    1
    35     5     6   ar
    36    14    15   ar
    37    17    22    1
    38    22    23    1
    39    23    24    1
    40    15    11   ar
    41     6     1   ar
    42    31    26   ar
    43    37    34    1
    44     7    10    1
@<TRIPOS>MOLECULE
*****
 41 44 0 0 0
SMALL
GASTEIGER

@<TRIPOS>ATOM
      1 C         142.1417  142.1712  163.5963 C.ar    1  UNL1        0.0597
      2 C         143.0050  141.1526  162.9129 C.ar    1  UNL1        0.0422
      3 C         143.5609  141.4347  161.5486 C.ar    1  UNL1        0.1486
      4 C         143.2536  142.7355  160.8678 C.ar    1  UNL1        0.0743
      5 C         142.3903  143.7541  161.5512 C.ar    1  UNL1        0.1416
      6 C         141.8343  143.4720  162.9154 C.ar    1  UNL1        0.0416
      7 N         140.9883  140.5472  165.2643 N.am    1  UNL1       -0.2644
      8 C         141.5856  141.8891  164.9606 C.2     1  UNL1        0.2508
      9 O         141.6270  142.9490  166.0212 O.2     1  UNL1       -0.2698
     10 H         140.9611  139.8515  164.5682 H       1  UNL1        0.1566
     11 N         140.2478  139.9734  169.0310 N.ar    1  UNL1       -0.2357
     12 C         138.9055  139.6885  168.4251 C.ar    1  UNL1        0.0988
     13 C         139.0195  139.8688  166.9402 C.ar    1  UNL1        0.0565
     14 C         140.4323  140.2650  166.6287 C.ar    1  UNL1        0.1557
     15 N         141.1914  140.3297  167.9208 N.ar    1  UNL1       -0.1534
     16 C         140.5869  139.9126  170.4908 C.3     1  UNL1        0.2423
     17 P         141.1319  141.1253  171.1854 P.3     1  UNL1        0.3677
     18 O         141.6769  142.3379  171.8800 O.2     1  UNL1       -0.2557
     19 O         139.7742  141.7615  171.1400 O.3     1  UNL1       -0.2928
     20 C         140.2776  143.5942  169.3686 C.3     1  UNL1        0.0352
     21 C         139.6226  143.1711  170.6500 C.3     1  UNL1        0.1515
     22 O         142.4895  140.4890  171.2309 O.3     1  UNL1       -0.2928
     23 C         143.4909  140.7806  170.1528 C.3     1  UNL1        0.1515
     24 C         143.8076  142.2006  169.7876 C.3     1  UNL1        0.0352
     25 O         144.4243  140.4161  160.8652 O.3     1  UNL1       -0.4502
     26 C         143.8312  139.4989  159.8371 C.ar    1  UNL1        0.1835
     27 C         143.9148  139.8502  158.3811 C.ar    1  UNL1        0.1397
     28 N         143.3217  138.9330  157.3530 N.ar    1  UNL1       -0.2180
     29 C         142.6451  137.6644  157.7809 C.ar    1  UNL1        0.2173
     30 N         142.5616  137.3131  159.2367 N.ar    1  UNL1       -0.2180
     31 C         143.1546  138.2303  160.2648 C.ar    1  UNL1        0.1397
     32 C         142.0521  136.7472  156.7528 C.2     1  UNL1        0.2851
     33 O         141.0102  137.2590  155.8028 O.2     1  UNL1       -0.2665
     34 N         142.5009  135.3180  156.6747 N.am    1  UNL1       -0.2735
     35 C         143.4857  134.4728  157.4270 C.3     1  UNL1        0.0956
     36 C         143.1356  133.2968  156.5642 C.3     1  UNL1        0.0430
     37 C         142.1508  134.1419  155.8119 C.3     1  UNL1        0.0956
     38 O         142.0829  145.0549  160.8703 O.3     1  UNL1       -0.4791
     39 C         140.6774  145.3678  160.4502 C.3     1  UNL1        0.1661
     40 C         140.1718  144.9020  159.1170 C.3     1  UNL1        0.0472
     41 C         139.7774  146.1465  161.3634 C.3     1  UNL1        0.0472
@<TRIPOS>BOND
     1    20    21    1
     2    21    19    1
     3    19    17    1
     4    17    18    2
     5    17    16    1
     6    16    11    1
     7    11    12   ar
     8    12    13   ar
     9    13    14   ar
    10    14     7    1
    11     7     8   am
    12     8     9    2
    13     8     1    1
    14     1     2   ar
    15     2     3   ar
    16     3    25    1
    17    25    26    1
    18    26    27   ar
    19    27    28   ar
    20    28    29   ar
    21    29    32    1
    22    32    33    2
    23    32    34   am
    24    34    35    1
    25    35    36    1
    26    36    37    1
    27    29    30   ar
    28    30    31   ar
    29     3     4   ar
    30     4     5   ar
    31     5    38    1
    32    38    39    1
    33    39    40    1
    34    39    41    1
    35     5     6   ar
    36    14    15   ar
    37    17    22    1
    38    22    23    1
    39    23    24    1
    40    15    11   ar
    41     6     1   ar
    42    31    26   ar
    43    37    34    1
    44     7    10    1
@<TRIPOS>MOLECULE
*****
 41 44 0 0 0
SMALL
GASTEIGER

@<TRIPOS>ATOM
      1 C         142.0207  138.8905  159.6757 C.ar    1  UNL1        0.0597
      2 C         140.7994  139.2710  160.4591 C.ar    1  UNL1        0.0422
      3 C         140.9377  140.0582  161.7284 C.ar    1  UNL1        0.1486
      4 C         142.2973  140.4649  162.2143 C.ar    1  UNL1        0.0743
      5 C         143.5186  140.0844  161.4310 C.ar    1  UNL1        0.1416
      6 C         143.3802  139.2972  160.1617 C.ar    1  UNL1        0.0416
      7 N         143.0322  137.2809  157.9048 N.am    1  UNL1       -0.2644
      8 C         141.8824  138.1032  158.4064 C.2     1  UNL1        0.2508
      9 O         140.5943  138.1384  157.6386 O.2     1  UNL1       -0.2698
     10 H         143.8777  137.2579  158.4088 H       1  UNL1        0.1566
     11 N         142.5828  134.6553  155.0818 N.ar    1  UNL1       -0.2357
     12 C         142.7796  135.9093  154.2826 C.ar    1  UNL1        0.0988
     13 C         142.9719  137.0456  155.2429 C.ar    1  UNL1        0.0565
     14 C         142.8940  136.4937  156.6355 C.ar    1  UNL1        0.1557
     15 N         142.6535  135.0164  156.5359 N.ar    1  UNL1       -0.1534
     16 C         142.3554  133.2814  154.5246 C.3     1  UNL1        0.2423
     17 P         142.4936  132.0798  155.4119 P.3     1  UNL1        0.3677
     18 O         142.6319  130.8783  156.2991 O.2     1  UNL1       -0.2557
     19 O         141.0089  131.8721  155.3621 O.3     1  UNL1       -0.2928
     20 C         139.8121  130.7589  153.3426 C.3     1  UNL1        0.0352
     21 C         140.4442  130.6511  154.6986 C.3     1  UNL1        0.1515
     22 O         143.9784  132.2875  155.4616 O.3     1  UNL1       -0.2928
     23 C         144.7877  131.6565  156.5557 C.3     1  UNL1        0.1515
     24 C         145.1177  132.4399  157.7916 C.3     1  UNL1        0.0352
     25 O         139.7164  140.4387  162.5118 O.3     1  UNL1       -0.4502
     26 C         139.7289  140.3524  164.0092 C.ar    1  UNL1        0.1835
     27 C         139.4642  139.0406  164.6871 C.ar    1  UNL1        0.1397
     28 N         139.4767  138.9542  166.1845 N.ar    1  UNL1       -0.2180
     29 C         139.7539  140.1796  167.0042 C.ar    1  UNL1        0.2173
     30 N         140.0186  141.4913  166.3263 N.ar    1  UNL1       -0.2180
     31 C         140.0061  141.5776  164.8289 C.ar    1  UNL1        0.1397
     32 C         139.7664  140.0932  168.5016 C.2     1  UNL1        0.2851
     33 O         138.5177  139.7148  169.2415 O.2     1  UNL1       -0.2665
     34 N         141.0277  140.3853  169.2592 N.am    1  UNL1       -0.2735
     35 C         142.4243  140.7815  168.8815 C.3     1  UNL1        0.0956
     36 C         142.8114  140.7982  170.3306 C.3     1  UNL1        0.0430
     37 C         141.4149  140.4020  170.7083 C.3     1  UNL1        0.0956
     38 O         144.8781  140.4911  161.9169 O.3     1  UNL1       -0.4791
     39 C         145.1182  140.7040  163.3821 C.3     1  UNL1        0.1661
     40 C         145.0812  139.5383  164.3254 C.3     1  UNL1        0.0472
     41 C         145.3953  142.0827  163.9042 C.3     1  UNL1        0.0472
@<TRIPOS>BOND
     1    20    21    1
     2    21    19    1
     3    19    17    1
     4    17    18    2
     5    17    16    1
     6    16    11    1
     7    11    12   ar
     8    12    13   ar
     9    13    14   ar
    10    14     7    1
    11     7     8   am
    12     8     9    2
    13     8     1    1
    14     1     2   ar
    15     2     3   ar
    16     3    25    1
    17    25    26    1
    18    26    27   ar
    19    27    28   ar
    20    28    29   ar
    21    29    32    1
    22    32    33    2
    23    32    34   am
    24    34    35    1
    25    35    36    1
    26    36    37    1
    27    29    30   ar
    28    30    31   ar
    29     3     4   ar
    30     4     5   ar
    31     5    38    1
    32    38    39    1
    33    39    40    1
    34    39    41    1
    35     5     6   ar
    36    14    15   ar
    37    17    22    1
    38    22    23    1
    39    23    24    1
    40    15    11   ar
    41     6     1   ar
    42    31    26   ar
    43    37    34    1
    44     7    10    1
@<TRIPOS>MOLECULE
*****
 41 44 0 0 0
SMALL
GASTEIGER

@<TRIPOS>ATOM
      1 C         144.4935  142.0537  158.8837 C.ar    1  UNL1        0.0597
      2 C         143.6612  141.1009  158.0778 C.ar    1  UNL1        0.0422
      3 C         144.0869  140.7217  156.6904 C.ar    1  UNL1        0.1486
      4 C         145.3450  141.2953  156.1088 C.ar    1  UNL1        0.0743
      5 C         146.1773  142.2481  156.9147 C.ar    1  UNL1        0.1416
      6 C         145.7516  142.6273  158.3021 C.ar    1  UNL1        0.0416
      7 N         144.4597  141.5742  161.4369 N.am    1  UNL1       -0.2644
      8 C         144.0678  142.4329  160.2711 C.2     1  UNL1        0.2508
      9 O         143.2503  143.6708  160.4928 O.2     1  UNL1       -0.2698
     10 H         144.9962  140.7617  161.2914 H       1  UNL1        0.1566
     11 N         142.6785  142.3181  164.8044 N.ar    1  UNL1       -0.2357
     12 C         144.0794  142.7558  165.1146 C.ar    1  UNL1        0.0988
     13 C         144.9171  142.5303  163.8908 C.ar    1  UNL1        0.0565
     14 C         144.0339  141.9534  162.8244 C.ar    1  UNL1        0.1557
     15 N         142.6505  141.8222  163.3890 N.ar    1  UNL1       -0.1534
     16 C         141.5108  142.3677  165.7444 C.3     1  UNL1        0.2423
     17 P         141.4132  141.3831  166.8719 P.3     1  UNL1        0.3677
     18 O         141.3156  140.3985  167.9993 O.2     1  UNL1       -0.2557
     19 O         141.5918  142.4971  167.8603 O.3     1  UNL1       -0.2928
     20 C         140.4772  143.6401  169.9099 C.3     1  UNL1        0.0352
     21 C         140.3927  143.1299  168.5019 C.3     1  UNL1        0.1515
     22 O         141.2346  140.2690  165.8834 O.3     1  UNL1       -0.2928
     23 C         142.0173  138.9985  166.0358 C.3     1  UNL1        0.1515
     24 C         143.4930  138.9899  165.7672 C.3     1  UNL1        0.0352
     25 O         143.2546  139.7689  155.8845 O.3     1  UNL1       -0.4502
     26 C         143.3392  138.2941  156.1449 C.ar    1  UNL1        0.1835
     27 C         142.6396  137.7006  157.3317 C.ar    1  UNL1        0.1397
     28 N         142.7243  136.2258  157.5920 N.ar    1  UNL1       -0.2180
     29 C         143.5085  135.3444  156.6655 C.ar    1  UNL1        0.2173
     30 N         144.2080  135.9379  155.4788 N.ar    1  UNL1       -0.2180
     31 C         144.1234  137.4127  155.2184 C.ar    1  UNL1        0.1397
     32 C         143.5931  133.8696  156.9258 C.2     1  UNL1        0.2851
     33 O         144.5931  133.3378  157.9092 O.2     1  UNL1       -0.2665
     34 N         142.6777  132.9266  156.2027 N.am    1  UNL1       -0.2735
     35 C         141.5876  133.0790  155.1836 C.3     1  UNL1        0.0956
     36 C         141.3832  131.5930  155.1800 C.3     1  UNL1        0.0430
     37 C         142.4733  131.4406  156.1991 C.3     1  UNL1        0.0956
     38 O         147.4354  142.8217  156.3331 O.3     1  UNL1       -0.4791
     39 C         147.5796  142.9593  154.8464 C.3     1  UNL1        0.1661
     40 C         148.4524  142.0053  154.0860 C.3     1  UNL1        0.0472
     41 C         146.8510  144.0510  154.1200 C.3     1  UNL1        0.0472
@<TRIPOS>BOND
     1    20    21    1
     2    21    19    1
     3    19    17    1
     4    17    18    2
     5    17    16    1
     6    16    11    1
     7    11    12   ar
     8    12    13   ar
     9    13    14   ar
    10    14     7    1
    11     7     8   am
    12     8     9    2
    13     8     1    1
    14     1     2   ar
    15     2     3   ar
    16     3    25    1
    17    25    26    1
    18    26    27   ar
    19    27    28   ar
    20    28    29   ar
    21    29    32    1
    22    32    33    2
    23    32    34   am
    24    34    35    1
    25    35    36    1
    26    36    37    1
    27    29    30   ar
    28    30    31   ar
    29     3     4   ar
    30     4     5   ar
    31     5    38    1
    32    38    39    1
    33    39    40    1
    34    39    41    1
    35     5     6   ar
    36    14    15   ar
    37    17    22    1
    38    22    23    1
    39    23    24    1
    40    15    11   ar
    41     6     1   ar
    42    31    26   ar
    43    37    34    1
    44     7    10    1
