@<TRIPOS>MOLECULE
*****
 24 26 0 0 0
SMALL
GASTEIGER

@<TRIPOS>ATOM
      1 C         141.3687  140.9204  167.2823 C.3     1  UNL1        0.0847
      2 N         141.1055  141.3246  168.7027 N.3     1  UNL1       -0.2676
      3 C         141.5565  140.4427  169.8292 C.3     1  UNL1        0.0896
      4 C         141.2933  140.8468  171.2496 C.3     1  UNL1        0.0862
      5 N         140.5792  142.1327  171.5434 N.3     1  UNL1       -0.2951
      6 C         140.1283  143.0146  170.4169 C.3     1  UNL1        0.0862
      7 C         140.3914  142.6105  168.9966 C.3     1  UNL1        0.0896
      8 H         141.2058  142.6919  172.1224 H       1  UNL1        0.1233
      9 C         140.5097  139.8798  166.6272 C.ar    1  UNL1       -0.0075
     10 C         141.0778  139.0118  165.5438 C.ar    1  UNL1       -0.0030
     11 C         140.2187  137.9712  164.8886 C.ar    1  UNL1       -0.0003
     12 C         138.7916  137.7986  165.3169 C.ar    1  UNL1       -0.0000
     13 C         138.2235  138.6666  166.4004 C.ar    1  UNL1       -0.0003
     14 C         139.0825  139.7071  167.0555 C.ar    1  UNL1       -0.0030
     15 C         142.4909  141.5569  166.5171 C.3     1  UNL1        0.0499
     16 C         143.3352  143.3476  164.8347 C.ar    1  UNL1        0.1346
     17 C         143.0542  144.4859  163.8992 C.ar    1  UNL1        0.0366
     18 C         141.6478  144.9720  163.7107 C.ar    1  UNL1        0.0031
     19 C         140.5223  144.3196  164.4576 C.ar    1  UNL1       -0.0001
     20 C         140.8033  143.1813  165.3930 C.ar    1  UNL1       -0.0012
     21 C         142.2098  142.6953  165.5816 C.ar    1  UNL1        0.0135
     22 O         144.7418  142.8615  165.0233 O.3     1  UNL1       -0.4758
     23 C         145.1607  140.4919  164.0439 C.3     1  UNL1        0.0512
     24 C         145.3739  141.9757  163.9910 C.3     1  UNL1        0.2055
@<TRIPOS>BOND
     1    23    24    1
     2    24    22    1
     3    22    16    1
     4    16    17   ar
     5    17    18   ar
     6    18    19   ar
     7    19    20   ar
     8    20    21   ar
     9    21    15    1
    10     1    15    1
    11     1     9    1
    12     9    10   ar
    13    10    11   ar
    14    11    12   ar
    15    12    13   ar
    16    13    14   ar
    17     1     2    1
    18     2     3    1
    19     3     4    1
    20     4     5    1
    21     5     6    1
    22     6     7    1
    23    21    16   ar
    24    14     9   ar
    25     7     2    1
    26     5     8    1
@<TRIPOS>MOLECULE
*****
 24 26 0 0 0
SMALL
GASTEIGER

@<TRIPOS>ATOM
      1 C         141.3049  140.9830  167.1956 C.3     1  UNL1        0.0847
      2 N         141.5731  140.9423  168.6709 N.3     1  UNL1       -0.2676
      3 C         140.8201  141.8523  169.5955 C.3     1  UNL1        0.0896
      4 C         141.0882  141.8117  171.0707 C.3     1  UNL1        0.0862
      5 N         142.1094  140.8610  171.6214 N.3     1  UNL1       -0.2951
      6 C         142.8624  139.9509  170.6969 C.3     1  UNL1        0.0862
      7 C         142.5943  139.9916  169.2216 C.3     1  UNL1        0.0896
      8 H         141.6248  140.2642  172.2918 H       1  UNL1        0.1233
      9 C         140.4647  139.9174  166.5564 C.ar    1  UNL1       -0.0075
     10 C         139.0366  139.7351  166.9775 C.ar    1  UNL1       -0.0030
     11 C         138.1963  138.6695  166.3382 C.ar    1  UNL1       -0.0003
     12 C         138.7842  137.7863  165.2779 C.ar    1  UNL1       -0.0000
     13 C         140.2123  137.9686  164.8568 C.ar    1  UNL1       -0.0003
     14 C         141.0525  139.0341  165.4960 C.ar    1  UNL1       -0.0030
     15 C         141.8770  142.0892  166.3596 C.3     1  UNL1        0.0499
     16 C         141.2899  143.3624  164.1722 C.ar    1  UNL1        0.1346
     17 C         140.3767  144.2700  163.4026 C.ar    1  UNL1        0.0366
     18 C         139.1373  144.8120  164.0508 C.ar    1  UNL1        0.0031
     19 C         138.8111  144.4464  165.4685 C.ar    1  UNL1       -0.0001
     20 C         139.7243  143.5388  166.2381 C.ar    1  UNL1       -0.0012
     21 C         140.9637  142.9968  165.5900 C.ar    1  UNL1        0.0135
     22 O         142.5293  142.8203  163.5241 O.3     1  UNL1       -0.4758
     23 C         143.8729  144.9551  164.1465 C.3     1  UNL1        0.0512
     24 C         143.7219  143.7084  163.3264 C.3     1  UNL1        0.2055
@<TRIPOS>BOND
     1    23    24    1
     2    24    22    1
     3    22    16    1
     4    16    17   ar
     5    17    18   ar
     6    18    19   ar
     7    19    20   ar
     8    20    21   ar
     9    21    15    1
    10     1    15    1
    11     1     9    1
    12     9    10   ar
    13    10    11   ar
    14    11    12   ar
    15    12    13   ar
    16    13    14   ar
    17     1     2    1
    18     2     3    1
    19     3     4    1
    20     4     5    1
    21     5     6    1
    22     6     7    1
    23    21    16   ar
    24    14     9   ar
    25     7     2    1
    26     5     8    1
@<TRIPOS>MOLECULE
*****
 24 26 0 0 0
SMALL
GASTEIGER

@<TRIPOS>ATOM
      1 C         140.3881  141.0993  167.5527 C.3     1  UNL1        0.0847
      2 N         141.0138  140.9342  168.9059 N.3     1  UNL1       -0.2676
      3 C         140.5471  141.7766  170.0559 C.3     1  UNL1        0.0896
      4 C         141.1728  141.6115  171.4091 C.3     1  UNL1        0.0862
      5 N         142.2652  140.6039  171.6123 N.3     1  UNL1       -0.2951
      6 C         142.7319  139.7614  170.4623 C.3     1  UNL1        0.0862
      7 C         142.1062  139.9266  169.1091 C.3     1  UNL1        0.0896
      8 H         141.9424  139.9616  172.3359 H       1  UNL1        0.1233
      9 C         139.8362  139.9059  166.8308 C.ar    1  UNL1       -0.0075
     10 C         138.5066  139.3371  167.2293 C.ar    1  UNL1       -0.0030
     11 C         137.9548  138.1436  166.5074 C.ar    1  UNL1       -0.0003
     12 C         138.7324  137.5189  165.3871 C.ar    1  UNL1       -0.0000
     13 C         140.0619  138.0878  164.9887 C.ar    1  UNL1       -0.0003
     14 C         140.6138  139.2812  165.7105 C.ar    1  UNL1       -0.0030
     15 C         140.3142  142.4580  166.9213 C.3     1  UNL1        0.0499
     16 C         140.9664  143.7417  164.7586 C.ar    1  UNL1        0.1346
     17 C         142.0041  144.1623  163.7606 C.ar    1  UNL1        0.0366
     18 C         143.4276  143.7198  163.9272 C.ar    1  UNL1        0.0031
     19 C         143.8134  142.8568  165.0918 C.ar    1  UNL1       -0.0001
     20 C         142.7756  142.4361  166.0898 C.ar    1  UNL1       -0.0012
     21 C         141.3521  142.8786  165.9232 C.ar    1  UNL1        0.0135
     22 O         139.5427  144.1842  164.5921 O.3     1  UNL1       -0.4758
     23 C         137.9958  142.1390  164.1751 C.3     1  UNL1        0.0512
     24 C         138.6187  143.4159  163.6943 C.3     1  UNL1        0.2055
@<TRIPOS>BOND
     1    23    24    1
     2    24    22    1
     3    22    16    1
     4    16    17   ar
     5    17    18   ar
     6    18    19   ar
     7    19    20   ar
     8    20    21   ar
     9    21    15    1
    10     1    15    1
    11     1     9    1
    12     9    10   ar
    13    10    11   ar
    14    11    12   ar
    15    12    13   ar
    16    13    14   ar
    17     1     2    1
    18     2     3    1
    19     3     4    1
    20     4     5    1
    21     5     6    1
    22     6     7    1
    23    21    16   ar
    24    14     9   ar
    25     7     2    1
    26     5     8    1
@<TRIPOS>MOLECULE
*****
 24 26 0 0 0
SMALL
GASTEIGER

@<TRIPOS>ATOM
      1 C         141.1227  142.2357  166.9737 C.3     1  UNL1        0.0847
      2 N         140.8275  141.8435  168.3912 N.3     1  UNL1       -0.2676
      3 C         140.9012  140.4027  168.8016 C.3     1  UNL1        0.0896
      4 C         140.6060  140.0105  170.2190 C.3     1  UNL1        0.0862
      5 N         140.2371  141.0592  171.2260 N.3     1  UNL1       -0.2951
      6 C         140.1634  142.5001  170.8156 C.3     1  UNL1        0.0862
      7 C         140.4586  142.8922  169.3982 C.3     1  UNL1        0.0896
      8 H         140.9253  141.0016  171.9766 H       1  UNL1        0.1233
      9 C         140.0038  142.3681  165.9836 C.ar    1  UNL1       -0.0075
     10 C         139.2937  141.1440  165.4862 C.ar    1  UNL1       -0.0030
     11 C         138.1747  141.2765  164.4960 C.ar    1  UNL1       -0.0003
     12 C         137.7658  142.6329  164.0033 C.ar    1  UNL1       -0.0000
     13 C         138.4759  143.8570  164.5007 C.ar    1  UNL1       -0.0003
     14 C         139.5949  143.7246  165.4908 C.ar    1  UNL1       -0.0030
     15 C         142.5369  142.4954  166.5465 C.3     1  UNL1        0.0499
     16 C         144.3001  141.9296  164.7241 C.ar    1  UNL1        0.1346
     17 C         145.0308  140.9165  163.8936 C.ar    1  UNL1        0.0366
     18 C         144.7289  139.4561  164.0550 C.ar    1  UNL1        0.0031
     19 C         143.6964  139.0088  165.0469 C.ar    1  UNL1       -0.0001
     20 C         142.9658  140.0219  165.8774 C.ar    1  UNL1       -0.0012
     21 C         143.2676  141.4823  165.7160 C.ar    1  UNL1        0.0135
     22 O         144.6019  143.3901  164.5627 O.3     1  UNL1       -0.4758
     23 C         142.7868  145.0712  163.7697 C.3     1  UNL1        0.0512
     24 C         143.9489  144.1738  163.4630 C.3     1  UNL1        0.2055
@<TRIPOS>BOND
     1    23    24    1
     2    24    22    1
     3    22    16    1
     4    16    17   ar
     5    17    18   ar
     6    18    19   ar
     7    19    20   ar
     8    20    21   ar
     9    21    15    1
    10     1    15    1
    11     1     9    1
    12     9    10   ar
    13    10    11   ar
    14    11    12   ar
    15    12    13   ar
    16    13    14   ar
    17     1     2    1
    18     2     3    1
    19     3     4    1
    20     4     5    1
    21     5     6    1
    22     6     7    1
    23    21    16   ar
    24    14     9   ar
    25     7     2    1
    26     5     8    1
@<TRIPOS>MOLECULE
*****
 24 26 0 0 0
SMALL
GASTEIGER

@<TRIPOS>ATOM
      1 C         141.3014  139.8352  166.8900 C.3     1  UNL1        0.0847
      2 N         141.3739  140.0511  168.3727 N.3     1  UNL1       -0.2676
      3 C         140.1126  140.1788  169.1745 C.3     1  UNL1        0.0896
      4 C         140.1850  140.3947  170.6571 C.3     1  UNL1        0.0862
      5 N         141.5187  140.4829  171.3379 N.3     1  UNL1       -0.2951
      6 C         142.7799  140.3552  170.5361 C.3     1  UNL1        0.0862
      7 C         142.7075  140.1393  169.0535 C.3     1  UNL1        0.0896
      8 H         141.5402  139.7436  172.0403 H       1  UNL1        0.1233
      9 C         142.5010  140.1104  166.0326 C.ar    1  UNL1       -0.0075
     10 C         143.3492  138.9745  165.5426 C.ar    1  UNL1       -0.0030
     11 C         144.5488  139.2497  164.6851 C.ar    1  UNL1       -0.0003
     12 C         144.9001  140.6609  164.3176 C.ar    1  UNL1       -0.0000
     13 C         144.0519  141.7969  164.8075 C.ar    1  UNL1       -0.0003
     14 C         142.8523  141.5217  165.6650 C.ar    1  UNL1       -0.0030
     15 C         140.0294  139.3441  166.2649 C.3     1  UNL1        0.0499
     16 C         138.5562  139.6547  164.1475 C.ar    1  UNL1        0.1346
     17 C         137.7816  140.5468  163.2234 C.ar    1  UNL1        0.0366
     18 C         137.7054  142.0204  163.4925 C.ar    1  UNL1        0.0031
     19 C         138.4039  142.6020  164.6858 C.ar    1  UNL1       -0.0001
     20 C         139.1785  141.7100  165.6099 C.ar    1  UNL1       -0.0012
     21 C         139.2547  140.2363  165.3408 C.ar    1  UNL1        0.0135
     22 O         138.6324  138.1810  163.8784 O.3     1  UNL1       -0.4758
     23 C         140.9886  137.2335  163.3299 C.3     1  UNL1        0.0512
     24 C         139.6195  137.6507  162.8811 C.3     1  UNL1        0.2055
@<TRIPOS>BOND
     1    23    24    1
     2    24    22    1
     3    22    16    1
     4    16    17   ar
     5    17    18   ar
     6    18    19   ar
     7    19    20   ar
     8    20    21   ar
     9    21    15    1
    10     1    15    1
    11     1     9    1
    12     9    10   ar
    13    10    11   ar
    14    11    12   ar
    15    12    13   ar
    16    13    14   ar
    17     1     2    1
    18     2     3    1
    19     3     4    1
    20     4     5    1
    21     5     6    1
    22     6     7    1
    23    21    16   ar
    24    14     9   ar
    25     7     2    1
    26     5     8    1
@<TRIPOS>MOLECULE
*****
 24 26 0 0 0
SMALL
GASTEIGER

@<TRIPOS>ATOM
      1 C         142.5249  140.4461  165.5405 C.3     1  UNL1        0.0847
      2 N         142.2358  139.3391  164.5703 N.3     1  UNL1       -0.2676
      3 C         141.2858  138.2411  164.9467 C.3     1  UNL1        0.0896
      4 C         140.9967  137.1341  163.9767 C.3     1  UNL1        0.0862
      5 N         141.6577  137.1252  162.6302 N.3     1  UNL1       -0.2951
      6 C         142.6078  138.2232  162.2539 C.3     1  UNL1        0.0862
      7 C         142.8969  139.3302  163.2239 C.3     1  UNL1        0.0896
      8 H         140.9109  137.1310  161.9355 H       1  UNL1        0.1233
      9 C         142.7326  141.8453  165.0416 C.ar    1  UNL1       -0.0075
     10 C         144.1024  142.4559  165.0694 C.ar    1  UNL1       -0.0030
     11 C         144.3100  143.8553  164.5705 C.ar    1  UNL1       -0.0003
     12 C         143.1479  144.6439  164.0439 C.ar    1  UNL1       -0.0000
     13 C         141.7781  144.0333  164.0161 C.ar    1  UNL1       -0.0003
     14 C         141.5704  142.6341  164.5150 C.ar    1  UNL1       -0.0030
     15 C         142.6063  140.1537  167.0095 C.3     1  UNL1        0.0499
     16 C         140.7112  141.5519  168.1066 C.ar    1  UNL1        0.1346
     17 C         140.2667  142.5822  169.1021 C.ar    1  UNL1        0.0366
     18 C         141.2728  143.2445  169.9959 C.ar    1  UNL1        0.0031
     19 C         142.7234  142.8767  169.8942 C.ar    1  UNL1       -0.0001
     20 C         143.1679  141.8464  168.8988 C.ar    1  UNL1       -0.0012
     21 C         142.1618  141.1840  168.0050 C.ar    1  UNL1        0.0135
     22 O         139.7050  140.8895  167.2128 O.3     1  UNL1       -0.4758
     23 C         138.0868  138.9160  166.7262 C.3     1  UNL1        0.0512
     24 C         139.0210  139.6306  167.6571 C.3     1  UNL1        0.2055
@<TRIPOS>BOND
     1    23    24    1
     2    24    22    1
     3    22    16    1
     4    16    17   ar
     5    17    18   ar
     6    18    19   ar
     7    19    20   ar
     8    20    21   ar
     9    21    15    1
    10     1    15    1
    11     1     9    1
    12     9    10   ar
    13    10    11   ar
    14    11    12   ar
    15    12    13   ar
    16    13    14   ar
    17     1     2    1
    18     2     3    1
    19     3     4    1
    20     4     5    1
    21     5     6    1
    22     6     7    1
    23    21    16   ar
    24    14     9   ar
    25     7     2    1
    26     5     8    1
@<TRIPOS>MOLECULE
*****
 24 26 0 0 0
SMALL
GASTEIGER

@<TRIPOS>ATOM
      1 C         141.3380  142.0880  166.0963 C.3     1  UNL1        0.0847
      2 N         140.8381  143.1998  165.2221 N.3     1  UNL1       -0.2676
      3 C         139.3761  143.5343  165.1966 C.3     1  UNL1        0.0896
      4 C         138.8761  144.6460  164.3225 C.3     1  UNL1        0.0862
      5 N         139.8382  145.4233  163.4739 N.3     1  UNL1       -0.2951
      6 C         141.3002  145.0888  163.4994 C.3     1  UNL1        0.0862
      7 C         141.8001  143.9771  164.3735 C.3     1  UNL1        0.0896
      8 H         139.7548  146.4005  163.7539 H       1  UNL1        0.1233
      9 C         141.7096  142.3649  167.5229 C.ar    1  UNL1       -0.0075
     10 C         143.1033  142.0865  168.0024 C.ar    1  UNL1       -0.0030
     11 C         143.4749  142.3634  169.4291 C.ar    1  UNL1       -0.0003
     12 C         142.4528  142.9187  170.3761 C.ar    1  UNL1       -0.0000
     13 C         141.0591  143.1971  169.8965 C.ar    1  UNL1       -0.0003
     14 C         140.6875  142.9202  168.4700 C.ar    1  UNL1       -0.0030
     15 C         141.4662  140.6994  165.5438 C.3     1  UNL1        0.0499
     16 C         140.3279  138.4486  164.9207 C.ar    1  UNL1        0.1346
     17 C         139.2124  137.4627  165.1036 C.ar    1  UNL1        0.0366
     18 C         138.1197  137.7415  166.0926 C.ar    1  UNL1        0.0031
     19 C         138.1425  139.0063  166.8987 C.ar    1  UNL1       -0.0001
     20 C         139.2580  139.9922  166.7158 C.ar    1  UNL1       -0.0012
     21 C         140.3507  139.7134  165.7268 C.ar    1  UNL1        0.0135
     22 O         141.4206  138.1698  163.9316 O.3     1  UNL1       -0.4758
     23 C         142.2103  137.8805  161.4734 C.3     1  UNL1        0.0512
     24 C         141.1203  138.1710  162.4619 C.3     1  UNL1        0.2055
@<TRIPOS>BOND
     1    23    24    1
     2    24    22    1
     3    22    16    1
     4    16    17   ar
     5    17    18   ar
     6    18    19   ar
     7    19    20   ar
     8    20    21   ar
     9    21    15    1
    10     1    15    1
    11     1     9    1
    12     9    10   ar
    13    10    11   ar
    14    11    12   ar
    15    12    13   ar
    16    13    14   ar
    17     1     2    1
    18     2     3    1
    19     3     4    1
    20     4     5    1
    21     5     6    1
    22     6     7    1
    23    21    16   ar
    24    14     9   ar
    25     7     2    1
    26     5     8    1
@<TRIPOS>MOLECULE
*****
 24 26 0 0 0
SMALL
GASTEIGER

@<TRIPOS>ATOM
      1 C         141.2294  141.0456  166.5000 C.3     1  UNL1        0.0847
      2 N         140.5383  140.0334  165.6351 N.3     1  UNL1       -0.2676
      3 C         141.1578  138.6847  165.4177 C.3     1  UNL1        0.0896
      4 C         140.4667  137.6726  164.5529 C.3     1  UNL1        0.0862
      5 N         139.1562  138.0091  163.9054 N.3     1  UNL1       -0.2951
      6 C         138.5367  139.3578  164.1228 C.3     1  UNL1        0.0862
      7 C         139.2278  140.3699  164.9877 C.3     1  UNL1        0.0896
      8 H         138.4804  137.3185  164.2322 H       1  UNL1        0.1233
      9 C         140.6547  141.4063  167.8378 C.ar    1  UNL1       -0.0075
     10 C         139.8471  140.4003  168.6031 C.ar    1  UNL1       -0.0030
     11 C         139.2725  140.7612  169.9409 C.ar    1  UNL1       -0.0003
     12 C         139.5054  142.1279  170.5133 C.ar    1  UNL1       -0.0000
     13 C         140.3129  143.1339  169.7479 C.ar    1  UNL1       -0.0003
     14 C         140.8876  142.7732  168.4102 C.ar    1  UNL1       -0.0030
     15 C         142.4951  141.6969  166.0271 C.3     1  UNL1        0.0499
     16 C         143.6863  143.4517  164.5265 C.ar    1  UNL1        0.1346
     17 C         143.6221  144.6569  163.6358 C.ar    1  UNL1        0.0366
     18 C         142.3026  145.3126  163.3550 C.ar    1  UNL1        0.0031
     19 C         141.0472  144.7630  163.9650 C.ar    1  UNL1       -0.0001
     20 C         141.1114  143.5578  164.8557 C.ar    1  UNL1       -0.0012
     21 C         142.4309  142.9022  165.1364 C.ar    1  UNL1        0.0135
     22 O         145.0059  142.7960  164.8073 O.3     1  UNL1       -0.4758
     23 C         145.1685  140.3784  163.8699 C.3     1  UNL1        0.0512
     24 C         145.5822  141.8195  163.8252 C.3     1  UNL1        0.2055
@<TRIPOS>BOND
     1    23    24    1
     2    24    22    1
     3    22    16    1
     4    16    17   ar
     5    17    18   ar
     6    18    19   ar
     7    19    20   ar
     8    20    21   ar
     9    21    15    1
    10     1    15    1
    11     1     9    1
    12     9    10   ar
    13    10    11   ar
    14    11    12   ar
    15    12    13   ar
    16    13    14   ar
    17     1     2    1
    18     2     3    1
    19     3     4    1
    20     4     5    1
    21     5     6    1
    22     6     7    1
    23    21    16   ar
    24    14     9   ar
    25     7     2    1
    26     5     8    1
@<TRIPOS>MOLECULE
*****
 24 26 0 0 0
SMALL
GASTEIGER

@<TRIPOS>ATOM
      1 C         139.7814  141.1408  164.8461 C.3     1  UNL1        0.0847
      2 N         139.0465  141.9628  163.8291 N.3     1  UNL1       -0.2676
      3 C         138.4106  143.2605  164.2313 C.3     1  UNL1        0.0896
      4 C         137.6758  144.0826  163.2144 C.3     1  UNL1        0.0862
      5 N         137.5768  143.6069  161.7952 N.3     1  UNL1       -0.2951
      6 C         138.2127  142.3093  161.3931 C.3     1  UNL1        0.0862
      7 C         138.9475  141.4872  162.4100 C.3     1  UNL1        0.0896
      8 H         137.9937  144.3324  161.2118 H       1  UNL1        0.1233
      9 C         139.1944  139.8488  165.3322 C.ar    1  UNL1       -0.0075
     10 C         138.2973  139.8379  166.5343 C.ar    1  UNL1       -0.0030
     11 C         137.7103  138.5458  167.0203 C.ar    1  UNL1       -0.0003
     12 C         138.0205  137.2648  166.3042 C.ar    1  UNL1       -0.0000
     13 C         138.9176  137.2758  165.1021 C.ar    1  UNL1       -0.0003
     14 C         139.5045  138.5677  164.6161 C.ar    1  UNL1       -0.0030
     15 C         141.1032  141.6108  165.3771 C.3     1  UNL1        0.0499
     16 C         142.3485  141.3723  167.6448 C.ar    1  UNL1        0.1346
     17 C         142.4891  141.7334  169.0939 C.ar    1  UNL1        0.0366
     18 C         141.5251  142.6942  169.7243 C.ar    1  UNL1        0.0031
     19 C         140.4204  143.2939  168.9057 C.ar    1  UNL1       -0.0001
     20 C         140.2798  142.9327  167.4566 C.ar    1  UNL1       -0.0012
     21 C         141.2438  141.9719  166.8262 C.ar    1  UNL1        0.0135
     22 O         143.3125  140.4114  167.0143 O.3     1  UNL1       -0.4758
     23 C         142.9853  138.2080  165.6773 C.3     1  UNL1        0.0512
     24 C         142.9979  138.9451  166.9835 C.3     1  UNL1        0.2055
@<TRIPOS>BOND
     1    23    24    1
     2    24    22    1
     3    22    16    1
     4    16    17   ar
     5    17    18   ar
     6    18    19   ar
     7    19    20   ar
     8    20    21   ar
     9    21    15    1
    10     1    15    1
    11     1     9    1
    12     9    10   ar
    13    10    11   ar
    14    11    12   ar
    15    12    13   ar
    16    13    14   ar
    17     1     2    1
    18     2     3    1
    19     3     4    1
    20     4     5    1
    21     5     6    1
    22     6     7    1
    23    21    16   ar
    24    14     9   ar
    25     7     2    1
    26     5     8    1
