@<TRIPOS>MOLECULE
*****
 26 27 0 0 0
SMALL
GASTEIGER

@<TRIPOS>ATOM
      1 N         138.5572  141.3176  163.5571 N.3     1  UNL1       -0.2665
      2 C         137.5225  142.3829  163.3459 C.3     1  UNL1        0.0725
      3 C         137.9271  143.7272  162.8176 C.3     1  UNL1        0.0191
      4 C         139.3664  144.0062  162.5003 C.3     1  UNL1        0.0224
      5 C         140.4010  142.9409  162.7115 C.3     1  UNL1        0.0191
      6 C         139.9964  141.5966  163.2398 C.3     1  UNL1        0.0725
      7 C         138.1525  139.9733  164.0854 C.3     1  UNL1        0.1376
      8 C         138.5367  138.7285  163.3419 C.2     1  UNL1        0.1659
      9 O         137.7939  138.3382  162.0985 O.2     1  UNL1       -0.2946
     10 C         140.2100  137.7793  162.4479 C.3     1  UNL1        0.0074
     11 C         139.6637  137.8740  163.8417 C.3     1  UNL1        0.0529
     12 C         139.1175  137.9688  165.2354 C.3     1  UNL1        0.0074
     13 C         140.7907  137.0196  164.3415 C.3     1  UNL1        0.0074
     14 C         139.7710  145.3504  161.9720 C.3     1  UNL1        0.0897
     15 N         139.7718  145.6062  160.4940 N.am    1  UNL1       -0.3009
     16 C         140.9857  145.2771  159.6765 C.2     1  UNL1        0.2459
     17 O         142.1988  144.6924  160.3371 O.2     1  UNL1       -0.2701
     18 H         138.9756  145.9900  160.0604 H       1  UNL1        0.1497
     19 C         140.9865  145.5328  158.1985 C.ar    1  UNL1        0.0550
     20 C         139.9207  146.3920  157.5854 C.ar    1  UNL1        0.0160
     21 C         139.9215  146.6477  156.1073 C.ar    1  UNL1        0.0587
     22 CL        138.8557  147.5069  155.4943 Cl      1  UNL1       -0.0822
     23 C         140.9881  146.0443  155.2423 C.ar    1  UNL1        0.0228
     24 C         142.0539  145.1851  155.8555 C.ar    1  UNL1        0.0587
     25 CL        143.1206  144.5817  154.9905 Cl      1  UNL1       -0.0822
     26 C         142.0531  144.9294  157.3335 C.ar    1  UNL1        0.0160
@<TRIPOS>BOND
     1    10    11    1
     2    11    12    1
     3    11    13    1
     4    11     8    1
     5     8     9    2
     6     8     7    1
     7     7     1    1
     8     1     2    1
     9     2     3    1
    10     3     4    1
    11     4    14    1
    12    14    15    1
    13    15    16   am
    14    16    17    2
    15    16    19    1
    16    19    20   ar
    17    20    21   ar
    18    21    22    1
    19    21    23   ar
    20    23    24   ar
    21    24    25    1
    22    24    26   ar
    23     4     5    1
    24     5     6    1
    25     6     1    1
    26    26    19   ar
    27    15    18    1
@<TRIPOS>MOLECULE
*****
 26 27 0 0 0
SMALL
GASTEIGER

@<TRIPOS>ATOM
      1 N         138.6926  141.2550  163.4381 N.3     1  UNL1       -0.2665
      2 C         140.0441  141.8156  163.7684 C.3     1  UNL1        0.0725
      3 C         140.4443  143.1643  163.2479 C.3     1  UNL1        0.0191
      4 C         139.4929  143.9524  162.3972 C.3     1  UNL1        0.0224
      5 C         138.1414  143.3918  162.0669 C.3     1  UNL1        0.0191
      6 C         137.7413  142.0431  162.5873 C.3     1  UNL1        0.0725
      7 C         138.2925  139.9063  163.9585 C.3     1  UNL1        0.1376
      8 C         138.6716  138.6678  163.2021 C.2     1  UNL1        0.1659
      9 O         137.8947  138.2658  161.9835 O.2     1  UNL1       -0.2946
     10 C         139.1908  137.6974  165.0156 C.3     1  UNL1        0.0074
     11 C         139.8278  137.8312  163.6642 C.3     1  UNL1        0.0529
     12 C         140.4647  137.9650  162.3127 C.3     1  UNL1        0.0074
     13 C         140.9839  136.9946  164.1262 C.3     1  UNL1        0.0074
     14 C         139.8931  145.3011  161.8767 C.3     1  UNL1        0.0897
     15 N         139.8708  145.5727  160.4017 N.am    1  UNL1       -0.3009
     16 C         141.0590  145.2211  159.5563 C.2     1  UNL1        0.2459
     17 O         142.2694  144.5979  160.1860 O.2     1  UNL1       -0.2701
     18 H         139.0763  145.9817  159.9884 H       1  UNL1        0.1497
     19 C         141.0366  145.4927  158.0812 C.ar    1  UNL1        0.0550
     20 C         142.0990  144.9123  157.1956 C.ar    1  UNL1        0.0160
     21 C         142.0767  145.1839  155.7205 C.ar    1  UNL1        0.0587
     22 CL        143.1391  144.6034  154.8349 Cl      1  UNL1       -0.0822
     23 C         140.9919  146.0359  155.1311 C.ar    1  UNL1        0.0228
     24 C         139.9295  146.6163  156.0169 C.ar    1  UNL1        0.0587
     25 CL        138.8448  147.4683  155.4275 Cl      1  UNL1       -0.0822
     26 C         139.9519  146.3447  157.4919 C.ar    1  UNL1        0.0160
@<TRIPOS>BOND
     1    10    11    1
     2    11    12    1
     3    11    13    1
     4    11     8    1
     5     8     9    2
     6     8     7    1
     7     7     1    1
     8     1     2    1
     9     2     3    1
    10     3     4    1
    11     4    14    1
    12    14    15    1
    13    15    16   am
    14    16    17    2
    15    16    19    1
    16    19    20   ar
    17    20    21   ar
    18    21    22    1
    19    21    23   ar
    20    23    24   ar
    21    24    25    1
    22    24    26   ar
    23     4     5    1
    24     5     6    1
    25     6     1    1
    26    26    19   ar
    27    15    18    1
@<TRIPOS>MOLECULE
*****
 26 27 0 0 0
SMALL
GASTEIGER

@<TRIPOS>ATOM
      1 N         143.4225  140.1959  161.8218 N.3     1  UNL1       -0.2665
      2 C         143.2349  141.0419  160.5975 C.3     1  UNL1        0.0725
      3 C         143.0310  140.3922  159.2609 C.3     1  UNL1        0.0191
      4 C         143.0149  138.8966  159.1487 C.3     1  UNL1        0.0224
      5 C         143.2025  138.0506  160.3730 C.3     1  UNL1        0.0191
      6 C         143.4064  138.7002  161.7095 C.3     1  UNL1        0.0725
      7 C         143.6264  140.8456  163.1583 C.3     1  UNL1        0.1376
      8 C         144.6455  141.9350  163.3151 C.2     1  UNL1        0.1659
      9 O         146.0801  141.6766  162.9615 O.2     1  UNL1       -0.2946
     10 C         144.4056  143.8575  162.4510 C.3     1  UNL1        0.0074
     11 C         144.2299  143.2829  163.8254 C.3     1  UNL1        0.0529
     12 C         144.0543  142.7084  165.1998 C.3     1  UNL1        0.0074
     13 C         143.8144  144.6308  164.3358 C.3     1  UNL1        0.0074
     14 C         142.8110  138.2469  157.8121 C.3     1  UNL1        0.0897
     15 N         142.6306  136.7607  157.7203 N.am    1  UNL1       -0.3009
     16 C         143.4017  135.9729  156.7031 C.2     1  UNL1        0.2459
     17 O         144.3532  136.6714  155.7776 O.2     1  UNL1       -0.2701
     18 H         142.0060  136.3022  158.3278 H       1  UNL1        0.1497
     19 C         143.2212  134.4866  156.6113 C.ar    1  UNL1        0.0550
     20 C         142.1238  133.9153  155.7633 C.ar    1  UNL1        0.0160
     21 C         141.9433  132.4289  155.6715 C.ar    1  UNL1        0.0587
     22 CL        140.8459  131.8576  154.8234 Cl      1  UNL1       -0.0822
     23 C         142.8602  131.5140  156.4279 C.ar    1  UNL1        0.0228
     24 C         143.9576  132.0854  157.2760 C.ar    1  UNL1        0.0587
     25 CL        144.8746  131.1705  158.0324 Cl      1  UNL1       -0.0822
     26 C         144.1381  133.5716  157.3677 C.ar    1  UNL1        0.0160
@<TRIPOS>BOND
     1    10    11    1
     2    11    12    1
     3    11    13    1
     4    11     8    1
     5     8     9    2
     6     8     7    1
     7     7     1    1
     8     1     2    1
     9     2     3    1
    10     3     4    1
    11     4    14    1
    12    14    15    1
    13    15    16   am
    14    16    17    2
    15    16    19    1
    16    19    20   ar
    17    20    21   ar
    18    21    22    1
    19    21    23   ar
    20    23    24   ar
    21    24    25    1
    22    24    26   ar
    23     4     5    1
    24     5     6    1
    25     6     1    1
    26    26    19   ar
    27    15    18    1
@<TRIPOS>MOLECULE
*****
 26 27 0 0 0
SMALL
GASTEIGER

@<TRIPOS>ATOM
      1 N         140.3251  142.6763  165.4065 N.3     1  UNL1       -0.2665
      2 C         139.0102  143.2357  164.9507 C.3     1  UNL1        0.0725
      3 C         138.9770  144.3618  163.9603 C.3     1  UNL1        0.0191
      4 C         140.2589  144.9284  163.4257 C.3     1  UNL1        0.0224
      5 C         141.5738  144.3690  163.8816 C.3     1  UNL1        0.0191
      6 C         141.6070  143.2430  164.8720 C.3     1  UNL1        0.0725
      7 C         140.3583  141.5503  166.3969 C.3     1  UNL1        0.1376
      8 C         140.1240  140.1413  165.9388 C.2     1  UNL1        0.1659
      9 O         141.0548  139.5110  164.9456 O.2     1  UNL1       -0.2946
     10 C         138.7060  138.8013  165.1059 C.3     1  UNL1        0.0074
     11 C         138.9589  139.3627  166.4737 C.3     1  UNL1        0.0529
     12 C         139.2117  139.9241  167.8415 C.3     1  UNL1        0.0074
     13 C         137.7937  138.5840  167.0087 C.3     1  UNL1        0.0074
     14 C         140.2257  146.0545  162.4353 C.3     1  UNL1        0.0897
     15 N         139.7474  145.8080  161.0352 N.am    1  UNL1       -0.3009
     16 C         140.6729  145.2019  160.0222 C.2     1  UNL1        0.2459
     17 O         142.0767  144.8423  160.4094 O.2     1  UNL1       -0.2701
     18 H         138.8260  146.0440  160.7810 H       1  UNL1        0.1497
     19 C         140.1946  144.9554  158.6220 C.ar    1  UNL1        0.0550
     20 C         139.5113  143.6649  158.2792 C.ar    1  UNL1        0.0160
     21 C         139.0329  143.4184  156.8790 C.ar    1  UNL1        0.0587
     22 CL        138.3496  142.1279  156.5361 Cl      1  UNL1       -0.0822
     23 C         139.2379  144.4625  155.8217 C.ar    1  UNL1        0.0228
     24 C         139.9212  145.7531  156.1646 C.ar    1  UNL1        0.0587
     25 CL        140.1262  146.7972  155.1073 Cl      1  UNL1       -0.0822
     26 C         140.3995  145.9995  157.5648 C.ar    1  UNL1        0.0160
@<TRIPOS>BOND
     1    10    11    1
     2    11    12    1
     3    11    13    1
     4    11     8    1
     5     8     9    2
     6     8     7    1
     7     7     1    1
     8     1     2    1
     9     2     3    1
    10     3     4    1
    11     4    14    1
    12    14    15    1
    13    15    16   am
    14    16    17    2
    15    16    19    1
    16    19    20   ar
    17    20    21   ar
    18    21    22    1
    19    21    23   ar
    20    23    24   ar
    21    24    25    1
    22    24    26   ar
    23     4     5    1
    24     5     6    1
    25     6     1    1
    26    26    19   ar
    27    15    18    1
@<TRIPOS>MOLECULE
*****
 26 27 0 0 0
SMALL
GASTEIGER

@<TRIPOS>ATOM
      1 N         140.6979  145.0560  159.7223 N.3     1  UNL1       -0.2665
      2 C         141.8358  144.1614  160.1155 C.3     1  UNL1        0.0725
      3 C         142.2707  144.0872  161.5492 C.3     1  UNL1        0.0191
      4 C         141.5676  144.9077  162.5896 C.3     1  UNL1        0.0224
      5 C         140.4297  145.8024  162.1963 C.3     1  UNL1        0.0191
      6 C         139.9949  145.8765  160.7627 C.3     1  UNL1        0.0725
      7 C         140.2630  145.1302  158.2886 C.3     1  UNL1        0.1376
      8 C         141.0946  145.8799  157.2905 C.2     1  UNL1        0.1659
      9 O         142.5035  146.2681  157.6287 O.2     1  UNL1       -0.2946
     10 C         139.4084  146.9874  156.6348 C.3     1  UNL1        0.0074
     11 C         140.5174  146.2414  155.9540 C.3     1  UNL1        0.0529
     12 C         141.6264  145.4954  155.2732 C.3     1  UNL1        0.0074
     13 C         139.9402  146.6029  154.6175 C.3     1  UNL1        0.0074
     14 C         142.0025  144.8335  164.0233 C.3     1  UNL1        0.0897
     15 N         141.6862  143.6165  164.8409 N.am    1  UNL1       -0.3009
     16 C         140.3300  143.4625  165.4630 C.2     1  UNL1        0.2459
     17 O         139.2901  144.5256  165.2675 O.2     1  UNL1       -0.2701
     18 H         142.3688  142.9187  164.9693 H       1  UNL1        0.1497
     19 C         140.0138  142.2453  166.2808 C.ar    1  UNL1        0.0550
     20 C         139.2776  141.0953  165.6600 C.ar    1  UNL1        0.0160
     21 C         138.9613  139.8781  166.4777 C.ar    1  UNL1        0.0587
     22 CL        138.2251  138.7281  165.8570 Cl      1  UNL1       -0.0822
     23 C         139.3813  139.8111  167.9162 C.ar    1  UNL1        0.0228
     24 C         140.1175  140.9612  168.5369 C.ar    1  UNL1        0.0587
     25 CL        140.5375  140.8942  169.9754 Cl      1  UNL1       -0.0822
     26 C         140.4337  142.1783  167.7192 C.ar    1  UNL1        0.0160
@<TRIPOS>BOND
     1    10    11    1
     2    11    12    1
     3    11    13    1
     4    11     8    1
     5     8     9    2
     6     8     7    1
     7     7     1    1
     8     1     2    1
     9     2     3    1
    10     3     4    1
    11     4    14    1
    12    14    15    1
    13    15    16   am
    14    16    17    2
    15    16    19    1
    16    19    20   ar
    17    20    21   ar
    18    21    22    1
    19    21    23   ar
    20    23    24   ar
    21    24    25    1
    22    24    26   ar
    23     4     5    1
    24     5     6    1
    25     6     1    1
    26    26    19   ar
    27    15    18    1
@<TRIPOS>MOLECULE
*****
 26 27 0 0 0
SMALL
GASTEIGER

@<TRIPOS>ATOM
      1 N         139.9203  138.1352  163.1396 N.3     1  UNL1       -0.2665
      2 C         141.3749  137.9223  163.4371 C.3     1  UNL1        0.0725
      3 C         142.3788  137.9395  162.3227 C.3     1  UNL1        0.0191
      4 C         141.9280  138.1697  160.9107 C.3     1  UNL1        0.0224
      5 C         140.4733  138.3826  160.6132 C.3     1  UNL1        0.0191
      6 C         139.4694  138.3653  161.7276 C.3     1  UNL1        0.0725
      7 C         138.9164  138.1179  164.2541 C.3     1  UNL1        0.1376
      8 C         138.5440  139.3946  164.9478 C.2     1  UNL1        0.1659
      9 O         137.8279  140.4762  164.1946 O.2     1  UNL1       -0.2946
     10 C         137.8233  138.6053  166.7803 C.3     1  UNL1        0.0074
     11 C         138.8876  139.5896  166.3949 C.3     1  UNL1        0.0529
     12 C         139.9519  140.5739  166.0095 C.3     1  UNL1        0.0074
     13 C         139.2312  139.7847  167.8419 C.3     1  UNL1        0.0074
     14 C         142.9318  138.1870  159.7963 C.3     1  UNL1        0.0897
     15 N         143.0218  137.0267  158.8499 N.am    1  UNL1       -0.3009
     16 C         142.6514  137.2051  157.4073 C.2     1  UNL1        0.2459
     17 O         142.1911  138.5436  156.9111 O.2     1  UNL1       -0.2701
     18 H         143.3239  136.1481  159.1755 H       1  UNL1        0.1497
     19 C         142.7414  136.0447  156.4609 C.ar    1  UNL1        0.0550
     20 C         142.0129  136.0875  155.1504 C.ar    1  UNL1        0.0160
     21 C         142.1029  134.9271  154.2040 C.ar    1  UNL1        0.0587
     22 CL        141.3743  134.9699  152.8936 Cl      1  UNL1       -0.0822
     23 C         142.9215  133.7241  154.5681 C.ar    1  UNL1        0.0228
     24 C         143.6501  133.6814  155.8787 C.ar    1  UNL1        0.0587
     25 CL        144.4687  132.4783  156.2428 Cl      1  UNL1       -0.0822
     26 C         143.5600  134.8417  156.8250 C.ar    1  UNL1        0.0160
@<TRIPOS>BOND
     1    10    11    1
     2    11    12    1
     3    11    13    1
     4    11     8    1
     5     8     9    2
     6     8     7    1
     7     7     1    1
     8     1     2    1
     9     2     3    1
    10     3     4    1
    11     4    14    1
    12    14    15    1
    13    15    16   am
    14    16    17    2
    15    16    19    1
    16    19    20   ar
    17    20    21   ar
    18    21    22    1
    19    21    23   ar
    20    23    24   ar
    21    24    25    1
    22    24    26   ar
    23     4     5    1
    24     5     6    1
    25     6     1    1
    26    26    19   ar
    27    15    18    1
@<TRIPOS>MOLECULE
*****
 26 27 0 0 0
SMALL
GASTEIGER

@<TRIPOS>ATOM
      1 N         139.2813  142.2747  164.6522 N.3     1  UNL1       -0.2665
      2 C         140.5685  143.0418  164.7210 C.3     1  UNL1        0.0725
      3 C         140.7640  144.2571  163.8637 C.3     1  UNL1        0.0191
      4 C         139.6723  144.7052  162.9377 C.3     1  UNL1        0.0224
      5 C         138.3852  143.9381  162.8690 C.3     1  UNL1        0.0191
      6 C         138.1897  142.7228  163.7262 C.3     1  UNL1        0.0725
      7 C         139.0858  141.0594  165.5095 C.3     1  UNL1        0.1376
      8 C         139.3320  139.6932  164.9413 C.2     1  UNL1        0.1659
      9 O         140.2145  139.5286  163.7395 O.2     1  UNL1       -0.2946
     10 C         139.1606  137.6417  164.4296 C.3     1  UNL1        0.0074
     11 C         138.6957  138.4917  165.5747 C.3     1  UNL1        0.0529
     12 C         138.2307  139.3416  166.7199 C.3     1  UNL1        0.0074
     13 C         138.0594  137.2901  166.2082 C.3     1  UNL1        0.0074
     14 C         139.8679  145.9205  162.0804 C.3     1  UNL1        0.0897
     15 N         139.6250  145.8426  160.6023 N.am    1  UNL1       -0.3009
     16 C         140.6788  145.2757  159.6979 C.2     1  UNL1        0.2459
     17 O         141.9756  144.7866  160.2716 O.2     1  UNL1       -0.2701
     18 H         138.7738  146.1635  160.2257 H       1  UNL1        0.1497
     19 C         140.4359  145.1978  158.2197 C.ar    1  UNL1        0.0550
     20 C         140.0269  146.4255  157.4612 C.ar    1  UNL1        0.0160
     21 C         139.7839  146.3476  155.9830 C.ar    1  UNL1        0.0587
     22 CL        139.3749  147.5753  155.2244 Cl      1  UNL1       -0.0822
     23 C         139.9500  145.0420  155.2634 C.ar    1  UNL1        0.0228
     24 C         140.3590  143.8142  156.0220 C.ar    1  UNL1        0.0587
     25 CL        140.5251  142.5086  155.3024 Cl      1  UNL1       -0.0822
     26 C         140.6020  143.8922  157.5001 C.ar    1  UNL1        0.0160
@<TRIPOS>BOND
     1    10    11    1
     2    11    12    1
     3    11    13    1
     4    11     8    1
     5     8     9    2
     6     8     7    1
     7     7     1    1
     8     1     2    1
     9     2     3    1
    10     3     4    1
    11     4    14    1
    12    14    15    1
    13    15    16   am
    14    16    17    2
    15    16    19    1
    16    19    20   ar
    17    20    21   ar
    18    21    22    1
    19    21    23   ar
    20    23    24   ar
    21    24    25    1
    22    24    26   ar
    23     4     5    1
    24     5     6    1
    25     6     1    1
    26    26    19   ar
    27    15    18    1
@<TRIPOS>MOLECULE
*****
 26 27 0 0 0
SMALL
GASTEIGER

@<TRIPOS>ATOM
      1 N         140.6491  142.6843  165.3896 N.3     1  UNL1       -0.2665
      2 C         139.5188  143.6672  165.4687 C.3     1  UNL1        0.0725
      3 C         139.3933  144.7502  164.4385 C.3     1  UNL1        0.0191
      4 C         140.3980  144.8504  163.3293 C.3     1  UNL1        0.0224
      5 C         141.5283  143.8675  163.2502 C.3     1  UNL1        0.0191
      6 C         141.6539  142.7844  164.2804 C.3     1  UNL1        0.0725
      7 C         140.7747  141.6012  166.4198 C.3     1  UNL1        0.1376
      8 C         141.2838  141.9272  167.7925 C.2     1  UNL1        0.1659
      9 O         142.7092  142.3546  167.9819 O.2     1  UNL1       -0.2946
     10 C         140.5512  143.2904  169.2434 C.3     1  UNL1        0.0074
     11 C         140.3677  141.8259  168.9759 C.3     1  UNL1        0.0529
     12 C         140.1841  140.3614  168.7084 C.3     1  UNL1        0.0074
     13 C         139.4515  141.7245  170.1593 C.3     1  UNL1        0.0074
     14 C         140.2725  145.9334  162.2991 C.3     1  UNL1        0.0897
     15 N         139.7151  145.6175  160.9429 N.am    1  UNL1       -0.3009
     16 C         140.6311  145.1788  159.8390 C.2     1  UNL1        0.2459
     17 O         142.1046  145.0561  160.0915 O.2     1  UNL1       -0.2701
     18 H         138.7480  145.6981  160.7772 H       1  UNL1        0.1497
     19 C         140.0737  144.8629  158.4827 C.ar    1  UNL1        0.0550
     20 C         139.4653  143.5180  158.2166 C.ar    1  UNL1        0.0160
     21 C         138.9078  143.2021  156.8603 C.ar    1  UNL1        0.0587
     22 CL        138.2994  141.8571  156.5942 Cl      1  UNL1       -0.0822
     23 C         138.9587  144.2312  155.7702 C.ar    1  UNL1        0.0228
     24 C         139.5672  145.5762  156.0364 C.ar    1  UNL1        0.0587
     25 CL        139.6181  146.6053  154.9463 Cl      1  UNL1       -0.0822
     26 C         140.1246  145.8921  157.3926 C.ar    1  UNL1        0.0160
@<TRIPOS>BOND
     1    10    11    1
     2    11    12    1
     3    11    13    1
     4    11     8    1
     5     8     9    2
     6     8     7    1
     7     7     1    1
     8     1     2    1
     9     2     3    1
    10     3     4    1
    11     4    14    1
    12    14    15    1
    13    15    16   am
    14    16    17    2
    15    16    19    1
    16    19    20   ar
    17    20    21   ar
    18    21    22    1
    19    21    23   ar
    20    23    24   ar
    21    24    25    1
    22    24    26   ar
    23     4     5    1
    24     5     6    1
    25     6     1    1
    26    26    19   ar
    27    15    18    1
@<TRIPOS>MOLECULE
*****
 26 27 0 0 0
SMALL
GASTEIGER

@<TRIPOS>ATOM
      1 N         142.2572  135.9482  156.2098 N.3     1  UNL1       -0.2665
      2 C         142.8015  136.7565  157.3501 C.3     1  UNL1        0.0725
      3 C         141.9626  137.8315  157.9752 C.3     1  UNL1        0.0191
      4 C         140.5794  138.0981  157.4600 C.3     1  UNL1        0.0224
      5 C         140.0350  137.2897  156.3197 C.3     1  UNL1        0.0191
      6 C         140.8740  136.2148  155.6946 C.3     1  UNL1        0.0725
      7 C         143.0962  134.8733  155.5847 C.3     1  UNL1        0.1376
      8 C         142.8461  133.4339  155.9245 C.2     1  UNL1        0.1659
      9 O         141.4456  132.8965  155.9283 O.2     1  UNL1       -0.2946
     10 C         143.7721  131.7715  154.9872 C.3     1  UNL1        0.0074
     11 C         143.9964  132.5318  156.2606 C.3     1  UNL1        0.0529
     12 C         144.2206  133.2921  157.5340 C.3     1  UNL1        0.0074
     13 C         145.1467  131.6297  156.5967 C.3     1  UNL1        0.0074
     14 C         139.7404  139.1730  158.0851 C.3     1  UNL1        0.0897
     15 N         139.6921  139.3139  159.5776 N.am    1  UNL1       -0.3009
     16 C         138.4018  139.6667  160.2563 C.2     1  UNL1        0.2459
     17 O         137.1597  139.8785  159.4424 O.2     1  UNL1       -0.2701
     18 H         140.5073  139.1749  160.1118 H       1  UNL1        0.1497
     19 C         138.3536  139.8077  161.7489 C.ar    1  UNL1        0.0550
     20 C         137.9968  141.1272  162.3665 C.ar    1  UNL1        0.0160
     21 C         137.9486  141.2682  163.8591 C.ar    1  UNL1        0.0587
     22 CL        137.5919  142.5878  164.4767 Cl      1  UNL1       -0.0822
     23 C         138.2571  140.0895  164.7341 C.ar    1  UNL1        0.0228
     24 C         138.6138  138.7699  164.1165 C.ar    1  UNL1        0.0587
     25 CL        138.9223  137.5912  164.9914 Cl      1  UNL1       -0.0822
     26 C         138.6620  138.6290  162.6239 C.ar    1  UNL1        0.0160
@<TRIPOS>BOND
     1    10    11    1
     2    11    12    1
     3    11    13    1
     4    11     8    1
     5     8     9    2
     6     8     7    1
     7     7     1    1
     8     1     2    1
     9     2     3    1
    10     3     4    1
    11     4    14    1
    12    14    15    1
    13    15    16   am
    14    16    17    2
    15    16    19    1
    16    19    20   ar
    17    20    21   ar
    18    21    22    1
    19    21    23   ar
    20    23    24   ar
    21    24    25    1
    22    24    26   ar
    23     4     5    1
    24     5     6    1
    25     6     1    1
    26    26    19   ar
    27    15    18    1
