@<TRIPOS>MOLECULE
*****
 33 36 0 0 0
SMALL
GASTEIGER

@<TRIPOS>ATOM
      1 C         140.5694  139.1692  164.5964 C.3     1  UNL1        0.1548
      2 C         139.4723  138.6817  165.4957 C.ar    1  UNL1        0.0028
      3 C         138.9879  139.5442  166.6233 C.ar    1  UNL1       -0.0023
      4 C         137.8908  139.0567  167.5226 C.ar    1  UNL1       -0.0003
      5 C         137.2781  137.7067  167.2942 C.ar    1  UNL1       -0.0000
      6 C         137.7626  136.8442  166.1666 C.ar    1  UNL1       -0.0003
      7 C         138.8597  137.3317  165.2673 C.ar    1  UNL1       -0.0023
      8 N         141.9908  139.1616  165.0754 N.pl3   1  UNL1       -0.3245
      9 H         142.4803  138.3107  165.1505 H       1  UNL1        0.1474
     10 C         144.0454  142.5412  164.7498 C.ar    1  UNL1        0.1430
     11 C         143.3698  141.2526  164.3855 C.ar    1  UNL1        0.0514
     12 C         142.6664  140.4502  165.4398 C.ar    1  UNL1        0.0512
     13 C         142.6388  140.9366  166.8585 C.ar    1  UNL1        0.0514
     14 C         143.3145  142.2252  167.2229 C.ar    1  UNL1        0.1429
     15 C         144.0178  143.0276  166.1685 C.ar    1  UNL1        0.0738
     16 C         144.0101  144.4170  162.9526 C.3     1  UNL1        0.2525
     17 O         144.7488  143.3436  163.6955 O.3     1  UNL1       -0.4713
     18 O         143.2868  142.7116  168.6415 O.3     1  UNL1       -0.4726
     19 C         143.3080  141.7267  169.7726 C.3     1  UNL1        0.2370
     20 C         142.1952  141.7155  170.7784 C.3     1  UNL1        0.1847
     21 O         142.2158  140.7296  171.9088 O.3     1  UNL1       -0.3784
     22 H         142.1245  139.8309  171.5556 H       1  UNL1        0.2106
     23 C         140.2450  139.6644  163.2181 C.2     1  UNL1        0.1964
     24 O         140.9510  139.0859  162.0279 O.2     1  UNL1       -0.2892
     25 C         139.2145  140.7382  163.0301 C.2     1  UNL1        0.0569
     26 C         138.0851  140.7132  162.0434 C.2     1  UNL1        0.1014
     27 N         137.3052  141.9850  162.1994 N.2     1  UNL1       -0.2477
     28 C         137.9526  142.7959  163.2825 C.2     1  UNL1        0.0635
     29 C         137.6201  144.1364  163.8676 C.3     1  UNL1        0.0717
     30 C         138.4676  144.7064  164.9661 C.2     1  UNL1       -0.0198
     31 C         139.6477  143.9358  165.4796 C.2     1  UNL1       -0.0041
     32 C         139.9802  142.5953  164.8945 C.2     1  UNL1        0.0010
     33 C         139.1327  142.0253  163.7960 C.2     1  UNL1        0.0182
@<TRIPOS>BOND
     1    16    17    1
     2    17    10    1
     3    10    11   ar
     4    11    12   ar
     5    12     8    1
     6     8     1    1
     7     1    23    1
     8    23    24    2
     9    23    25    1
    10    25    26    2
    11    26    27    1
    12    27    28    2
    13    28    29    1
    14    29    30    1
    15    30    31    2
    16    31    32    1
    17    32    33    2
    18     1     2    1
    19     2     3   ar
    20     3     4   ar
    21     4     5   ar
    22     5     6   ar
    23     6     7   ar
    24    12    13   ar
    25    13    14   ar
    26    14    18    1
    27    18    19    1
    28    19    20    1
    29    20    21    1
    30    14    15   ar
    31    15    10   ar
    32    33    25    1
    33     7     2   ar
    34    33    28    1
    35     8     9    1
    36    21    22    1
@<TRIPOS>MOLECULE
*****
 33 36 0 0 0
SMALL
GASTEIGER

@<TRIPOS>ATOM
      1 C         138.6612  139.7776  165.4972 C.3     1  UNL1        0.1548
      2 C         139.3619  140.5040  166.6068 C.ar    1  UNL1        0.0028
      3 C         139.4433  139.8884  167.9723 C.ar    1  UNL1       -0.0023
      4 C         140.1440  140.6148  169.0819 C.ar    1  UNL1       -0.0003
      5 C         140.7633  141.9568  168.8261 C.ar    1  UNL1       -0.0000
      6 C         140.6819  142.5724  167.4607 C.ar    1  UNL1       -0.0003
      7 C         139.9812  141.8460  166.3510 C.ar    1  UNL1       -0.0023
      8 N         137.5228  140.4332  164.7731 N.pl3   1  UNL1       -0.3245
      9 H         136.6173  140.4135  165.1591 H       1  UNL1        0.1474
     10 C         138.0496  141.0029  160.8811 C.ar    1  UNL1        0.1430
     11 C         137.8085  140.3175  162.1934 C.ar    1  UNL1        0.0514
     12 C         137.7639  141.1186  163.4608 C.ar    1  UNL1        0.0512
     13 C         137.9603  142.6050  163.4160 C.ar    1  UNL1        0.0514
     14 C         138.2014  143.2903  162.1037 C.ar    1  UNL1        0.1429
     15 C         138.2460  142.4893  160.8362 C.ar    1  UNL1        0.0738
     16 C         139.3577  139.4985  159.2151 C.3     1  UNL1        0.2525
     17 O         138.0943  140.2019  159.6136 O.3     1  UNL1       -0.4713
     18 O         138.3978  144.7767  162.0588 O.3     1  UNL1       -0.4726
     19 C         139.7779  145.3545  162.1657 C.3     1  UNL1        0.2370
     20 C         140.7325  145.2345  161.0149 C.3     1  UNL1        0.1847
     21 O         142.2080  145.1479  161.2703 O.3     1  UNL1       -0.3784
     22 H         142.5194  145.9830  161.6531 H       1  UNL1        0.2106
     23 C         139.0989  138.3956  165.1116 C.2     1  UNL1        0.1964
     24 O         138.4888  137.2011  165.7830 O.2     1  UNL1       -0.2892
     25 C         140.1467  138.2083  164.0547 C.2     1  UNL1        0.0569
     26 C         139.9419  137.5677  162.7139 C.2     1  UNL1        0.1014
     27 N         141.2518  137.5922  161.9836 N.2     1  UNL1       -0.2477
     28 C         142.2662  138.2479  162.8730 C.2     1  UNL1        0.0635
     29 C         143.7236  138.5474  162.6827 C.3     1  UNL1        0.0717
     30 C         144.4980  139.2278  163.7724 C.2     1  UNL1       -0.0198
     31 C         143.8149  139.6085  165.0524 C.2     1  UNL1       -0.0041
     32 C         142.3575  139.3090  165.2428 C.2     1  UNL1        0.0010
     33 C         141.5832  138.6287  164.1530 C.2     1  UNL1        0.0182
@<TRIPOS>BOND
     1    16    17    1
     2    17    10    1
     3    10    11   ar
     4    11    12   ar
     5    12     8    1
     6     8     1    1
     7     1    23    1
     8    23    24    2
     9    23    25    1
    10    25    26    2
    11    26    27    1
    12    27    28    2
    13    28    29    1
    14    29    30    1
    15    30    31    2
    16    31    32    1
    17    32    33    2
    18     1     2    1
    19     2     3   ar
    20     3     4   ar
    21     4     5   ar
    22     5     6   ar
    23     6     7   ar
    24    12    13   ar
    25    13    14   ar
    26    14    18    1
    27    18    19    1
    28    19    20    1
    29    20    21    1
    30    14    15   ar
    31    15    10   ar
    32    33    25    1
    33     7     2   ar
    34    33    28    1
    35     8     9    1
    36    21    22    1
@<TRIPOS>MOLECULE
*****
 33 36 0 0 0
SMALL
GASTEIGER

@<TRIPOS>ATOM
      1 C         142.4439  141.0125  167.1345 C.3     1  UNL1        0.1548
      2 C         141.4365  141.3177  168.2031 C.ar    1  UNL1        0.0028
      3 C         141.4960  142.6235  168.9389 C.ar    1  UNL1       -0.0023
      4 C         140.4886  142.9288  170.0076 C.ar    1  UNL1       -0.0003
      5 C         139.4218  141.9282  170.3403 C.ar    1  UNL1       -0.0000
      6 C         139.3623  140.6224  169.6045 C.ar    1  UNL1       -0.0003
      7 C         140.3697  140.3172  168.5359 C.ar    1  UNL1       -0.0023
      8 N         143.1302  142.1317  166.4090 N.pl3   1  UNL1       -0.3245
      9 H         144.0258  142.4261  166.6927 H       1  UNL1        0.1474
     10 C         142.5319  143.7246  162.8238 C.ar    1  UNL1        0.1430
     11 C         143.2099  143.0540  163.9816 C.ar    1  UNL1        0.0514
     12 C         142.4521  142.8023  165.2513 C.ar    1  UNL1        0.0512
     13 C         141.0161  143.2211  165.3633 C.ar    1  UNL1        0.0514
     14 C         140.3380  143.8918  164.2055 C.ar    1  UNL1        0.1429
     15 C         141.0959  144.1435  162.9358 C.ar    1  UNL1        0.0738
     16 C         142.7880  143.4140  160.2571 C.3     1  UNL1        0.2525
     17 O         143.2897  143.9764  161.5540 O.3     1  UNL1       -0.4713
     18 O         138.9021  144.3106  164.3175 O.3     1  UNL1       -0.4726
     19 C         137.8144  143.2785  164.2782 C.3     1  UNL1        0.2370
     20 C         137.7105  142.3424  163.1108 C.3     1  UNL1        0.1847
     21 O         136.6463  141.2855  163.0893 O.3     1  UNL1       -0.3784
     22 H         136.8135  140.6440  163.7974 H       1  UNL1        0.2106
     23 C         142.7651  139.5879  166.7914 C.2     1  UNL1        0.1964
     24 O         143.2881  138.6615  167.8487 O.2     1  UNL1       -0.2892
     25 C         142.5631  139.0899  165.3909 C.2     1  UNL1        0.0569
     26 C         143.6267  138.9520  164.3423 C.2     1  UNL1        0.1014
     27 N         142.9830  138.4193  163.0965 N.2     1  UNL1       -0.2477
     28 C         141.5216  138.2280  163.3753 C.2     1  UNL1        0.0635
     29 C         140.3936  137.7300  162.5211 C.3     1  UNL1        0.0717
     30 C         139.0062  137.6464  163.0850 C.2     1  UNL1       -0.0198
     31 C         138.7467  138.0609  164.5030 C.2     1  UNL1       -0.0041
     32 C         139.8746  138.5589  165.3572 C.2     1  UNL1        0.0010
     33 C         141.2621  138.6425  164.7933 C.2     1  UNL1        0.0182
@<TRIPOS>BOND
     1    16    17    1
     2    17    10    1
     3    10    11   ar
     4    11    12   ar
     5    12     8    1
     6     8     1    1
     7     1    23    1
     8    23    24    2
     9    23    25    1
    10    25    26    2
    11    26    27    1
    12    27    28    2
    13    28    29    1
    14    29    30    1
    15    30    31    2
    16    31    32    1
    17    32    33    2
    18     1     2    1
    19     2     3   ar
    20     3     4   ar
    21     4     5   ar
    22     5     6   ar
    23     6     7   ar
    24    12    13   ar
    25    13    14   ar
    26    14    18    1
    27    18    19    1
    28    19    20    1
    29    20    21    1
    30    14    15   ar
    31    15    10   ar
    32    33    25    1
    33     7     2   ar
    34    33    28    1
    35     8     9    1
    36    21    22    1
@<TRIPOS>MOLECULE
*****
 33 36 0 0 0
SMALL
GASTEIGER

@<TRIPOS>ATOM
      1 C         142.0871  141.0574  166.7990 C.3     1  UNL1        0.1548
      2 C         141.2282  141.3996  167.9802 C.ar    1  UNL1        0.0028
      3 C         140.2290  140.4059  168.4940 C.ar    1  UNL1       -0.0023
      4 C         139.3701  140.7482  169.6752 C.ar    1  UNL1       -0.0003
      5 C         139.5106  142.0841  170.3426 C.ar    1  UNL1       -0.0000
      6 C         140.5099  143.0778  169.8288 C.ar    1  UNL1       -0.0003
      7 C         141.3687  142.7356  168.6476 C.ar    1  UNL1       -0.0023
      8 N         142.3897  139.6228  166.4822 N.pl3   1  UNL1       -0.3245
      9 H         142.8495  139.0587  167.1453 H       1  UNL1        0.1474
     10 C         142.6449  138.1297  162.8141 C.ar    1  UNL1        0.1430
     11 C         143.0426  138.7050  164.1411 C.ar    1  UNL1        0.0514
     12 C         141.9919  139.0476  165.1553 C.ar    1  UNL1        0.0512
     13 C         140.5434  138.8149  164.8426 C.ar    1  UNL1        0.0514
     14 C         140.1457  138.2397  163.5156 C.ar    1  UNL1        0.1429
     15 C         141.1964  137.8971  162.5014 C.ar    1  UNL1        0.0738
     16 C         143.8951  138.6657  160.6006 C.3     1  UNL1        0.2525
     17 O         143.6955  137.7871  161.7998 O.3     1  UNL1       -0.4713
     18 O         138.6972  138.0071  163.2028 O.3     1  UNL1       -0.4726
     19 C         137.9365  139.0077  162.3844 C.3     1  UNL1        0.2370
     20 C         137.9528  140.4579  162.7675 C.3     1  UNL1        0.1847
     21 O         136.6626  141.1872  162.9983 O.3     1  UNL1       -0.3784
     22 H         136.1703  141.2451  162.1644 H       1  UNL1        0.2106
     23 C         142.6433  142.1498  165.9344 C.2     1  UNL1        0.1964
     24 O         143.8830  142.8816  166.3555 O.2     1  UNL1       -0.2892
     25 C         141.9596  142.5103  164.6488 C.2     1  UNL1        0.0569
     26 C         142.4950  142.2709  163.2682 C.2     1  UNL1        0.1014
     27 N         141.4869  142.7862  162.2844 N.2     1  UNL1       -0.2477
     28 C         140.3284  143.3440  163.0568 C.2     1  UNL1        0.0635
     29 C         139.0452  143.9852  162.6184 C.3     1  UNL1        0.0717
     30 C         138.0542  144.4558  163.6413 C.2     1  UNL1       -0.0198
     31 C         138.3464  144.2853  165.1026 C.2     1  UNL1       -0.0041
     32 C         139.6296  143.6442  165.5411 C.2     1  UNL1        0.0010
     33 C         140.6206  143.1735  164.5182 C.2     1  UNL1        0.0182
@<TRIPOS>BOND
     1    16    17    1
     2    17    10    1
     3    10    11   ar
     4    11    12   ar
     5    12     8    1
     6     8     1    1
     7     1    23    1
     8    23    24    2
     9    23    25    1
    10    25    26    2
    11    26    27    1
    12    27    28    2
    13    28    29    1
    14    29    30    1
    15    30    31    2
    16    31    32    1
    17    32    33    2
    18     1     2    1
    19     2     3   ar
    20     3     4   ar
    21     4     5   ar
    22     5     6   ar
    23     6     7   ar
    24    12    13   ar
    25    13    14   ar
    26    14    18    1
    27    18    19    1
    28    19    20    1
    29    20    21    1
    30    14    15   ar
    31    15    10   ar
    32    33    25    1
    33     7     2   ar
    34    33    28    1
    35     8     9    1
    36    21    22    1
@<TRIPOS>MOLECULE
*****
 33 36 0 0 0
SMALL
GASTEIGER

@<TRIPOS>ATOM
      1 C         141.1382  140.4238  167.1401 C.3     1  UNL1        0.1548
      2 C         141.5813  141.3716  168.2150 C.ar    1  UNL1        0.0028
      3 C         140.6478  142.4380  168.7061 C.ar    1  UNL1       -0.0023
      4 C         141.0910  143.3858  169.7809 C.ar    1  UNL1       -0.0003
      5 C         142.4676  143.2671  170.3646 C.ar    1  UNL1       -0.0000
      6 C         143.4011  142.2006  169.8735 C.ar    1  UNL1       -0.0003
      7 C         142.9579  141.2528  168.7986 C.ar    1  UNL1       -0.0023
      8 N         142.1544  139.7674  166.2532 N.pl3   1  UNL1       -0.3245
      9 H         142.4468  138.8457  166.4380 H       1  UNL1        0.1474
     10 C         143.8329  140.5115  162.7349 C.ar    1  UNL1        0.1430
     11 C         143.2623  139.7637  163.9033 C.ar    1  UNL1        0.0514
     12 C         142.7249  140.5154  165.0849 C.ar    1  UNL1        0.0512
     13 C         142.7582  142.0149  165.0982 C.ar    1  UNL1        0.0514
     14 C         143.3288  142.7628  163.9298 C.ar    1  UNL1        0.1429
     15 C         143.8661  142.0111  162.7482 C.ar    1  UNL1        0.0738
     16 C         143.9167  138.3548  161.2887 C.3     1  UNL1        0.2525
     17 O         144.3703  139.7599  161.5532 O.3     1  UNL1       -0.4713
     18 O         143.3621  144.2623  163.9431 O.3     1  UNL1       -0.4726
     19 C         142.0872  145.0420  163.8141 C.3     1  UNL1        0.2370
     20 C         141.4282  145.1858  162.4742 C.3     1  UNL1        0.1847
     21 O         142.2317  145.0072  161.2203 O.3     1  UNL1       -0.3784
     22 H         142.8901  145.7165  161.1543 H       1  UNL1        0.2106
     23 C         139.6787  140.1323  166.9521 C.2     1  UNL1        0.1964
     24 O         138.8818  139.5385  168.0756 O.2     1  UNL1       -0.2892
     25 C         139.0164  140.4346  165.6407 C.2     1  UNL1        0.0569
     26 C         138.5093  139.4237  164.6553 C.2     1  UNL1        0.1014
     27 N         137.9243  140.1653  163.4900 N.2     1  UNL1       -0.2477
     28 C         138.0700  141.6345  163.7552 C.2     1  UNL1        0.0635
     29 C         137.6752  142.8422  162.9580 C.3     1  UNL1        0.0717
     30 C         137.9554  144.2164  163.4901 C.2     1  UNL1       -0.0198
     31 C         138.6303  144.3828  164.8193 C.2     1  UNL1       -0.0041
     32 C         139.0251  143.1751  165.6164 C.2     1  UNL1        0.0010
     33 C         138.7449  141.8009  165.0844 C.2     1  UNL1        0.0182
@<TRIPOS>BOND
     1    16    17    1
     2    17    10    1
     3    10    11   ar
     4    11    12   ar
     5    12     8    1
     6     8     1    1
     7     1    23    1
     8    23    24    2
     9    23    25    1
    10    25    26    2
    11    26    27    1
    12    27    28    2
    13    28    29    1
    14    29    30    1
    15    30    31    2
    16    31    32    1
    17    32    33    2
    18     1     2    1
    19     2     3   ar
    20     3     4   ar
    21     4     5   ar
    22     5     6   ar
    23     6     7   ar
    24    12    13   ar
    25    13    14   ar
    26    14    18    1
    27    18    19    1
    28    19    20    1
    29    20    21    1
    30    14    15   ar
    31    15    10   ar
    32    33    25    1
    33     7     2   ar
    34    33    28    1
    35     8     9    1
    36    21    22    1
@<TRIPOS>MOLECULE
*****
 33 36 0 0 0
SMALL
GASTEIGER

@<TRIPOS>ATOM
      1 C         141.4177  140.1094  167.5395 C.3     1  UNL1        0.1548
      2 C         141.5940  141.2819  168.4584 C.ar    1  UNL1        0.0028
      3 C         142.9013  141.4924  169.1632 C.ar    1  UNL1       -0.0023
      4 C         143.0777  142.6649  170.0820 C.ar    1  UNL1       -0.0003
      5 C         141.9468  143.6267  170.2960 C.ar    1  UNL1       -0.0000
      6 C         140.6395  143.4162  169.5912 C.ar    1  UNL1       -0.0003
      7 C         140.4631  142.2437  168.6723 C.ar    1  UNL1       -0.0023
      8 N         140.0407  139.6085  167.2186 N.pl3   1  UNL1       -0.3245
      9 H         139.5204  139.1270  167.9018 H       1  UNL1        0.1474
     10 C         138.7829  138.9426  163.5141 C.ar    1  UNL1        0.1430
     11 C         139.3673  138.7100  164.8758 C.ar    1  UNL1        0.0514
     12 C         139.4563  139.8412  165.8569 C.ar    1  UNL1        0.0512
     13 C         138.9609  141.2049  165.4763 C.ar    1  UNL1        0.0514
     14 C         138.3766  141.4375  164.1145 C.ar    1  UNL1        0.1429
     15 C         138.2875  140.3063  163.1334 C.ar    1  UNL1        0.0738
     16 C         138.9882  138.0523  161.0819 C.3     1  UNL1        0.2525
     17 O         138.6938  137.8115  162.5329 O.3     1  UNL1       -0.4713
     18 O         137.8812  142.8012  163.7339 O.3     1  UNL1       -0.4726
     19 C         137.8717  143.9059  164.7485 C.3     1  UNL1        0.2370
     20 C         139.0540  144.8206  164.8726 C.3     1  UNL1        0.1847
     21 O         139.6642  145.4283  163.6444 O.3     1  UNL1       -0.3784
     22 H         140.0565  144.7290  163.0985 H       1  UNL1        0.2106
     23 C         142.6183  139.4379  166.9415 C.2     1  UNL1        0.1964
     24 O         143.4082  138.4534  167.7518 O.2     1  UNL1       -0.2892
     25 C         143.0290  139.7510  165.5332 C.2     1  UNL1        0.0569
     26 C         143.0624  138.7822  164.3885 C.2     1  UNL1        0.1014
     27 N         143.5324  139.5203  163.1702 N.2     1  UNL1       -0.2477
     28 C         143.7895  140.9452  163.5619 C.2     1  UNL1        0.0635
     29 C         144.2667  142.1313  162.7775 C.3     1  UNL1        0.0717
     30 C         144.4328  143.4600  163.4535 C.2     1  UNL1       -0.0198
     31 C         144.1217  143.6025  164.9139 C.2     1  UNL1       -0.0041
     32 C         143.6445  142.4165  165.6983 C.2     1  UNL1        0.0010
     33 C         143.4784  141.0878  165.0223 C.2     1  UNL1        0.0182
@<TRIPOS>BOND
     1    16    17    1
     2    17    10    1
     3    10    11   ar
     4    11    12   ar
     5    12     8    1
     6     8     1    1
     7     1    23    1
     8    23    24    2
     9    23    25    1
    10    25    26    2
    11    26    27    1
    12    27    28    2
    13    28    29    1
    14    29    30    1
    15    30    31    2
    16    31    32    1
    17    32    33    2
    18     1     2    1
    19     2     3   ar
    20     3     4   ar
    21     4     5   ar
    22     5     6   ar
    23     6     7   ar
    24    12    13   ar
    25    13    14   ar
    26    14    18    1
    27    18    19    1
    28    19    20    1
    29    20    21    1
    30    14    15   ar
    31    15    10   ar
    32    33    25    1
    33     7     2   ar
    34    33    28    1
    35     8     9    1
    36    21    22    1
@<TRIPOS>MOLECULE
*****
 33 36 0 0 0
SMALL
GASTEIGER

@<TRIPOS>ATOM
      1 C         141.1288  140.0992  167.4325 C.3     1  UNL1        0.1548
      2 C         141.5690  141.1630  168.3941 C.ar    1  UNL1        0.0028
      3 C         142.9373  141.1015  169.0057 C.ar    1  UNL1       -0.0023
      4 C         143.3775  142.1652  169.9673 C.ar    1  UNL1       -0.0003
      5 C         142.4494  143.2904  170.3173 C.ar    1  UNL1       -0.0000
      6 C         141.0811  143.3519  169.7057 C.ar    1  UNL1       -0.0003
      7 C         140.6409  142.2882  168.7441 C.ar    1  UNL1       -0.0023
      8 N         142.1358  139.1542  166.8470 N.pl3   1  UNL1       -0.3245
      9 H         142.3167  138.2926  167.2876 H       1  UNL1        0.1474
     10 C         143.6646  138.9178  163.1923 C.ar    1  UNL1        0.1430
     11 C         142.9332  138.5502  164.4492 C.ar    1  UNL1        0.0514
     12 C         142.8673  139.5219  165.5901 C.ar    1  UNL1        0.0512
     13 C         143.5329  140.8611  165.4741 C.ar    1  UNL1        0.0514
     14 C         144.2643  141.2287  164.2172 C.ar    1  UNL1        0.1429
     15 C         144.3302  140.2570  163.0763 C.ar    1  UNL1        0.0738
     16 C         143.6616  138.4435  160.6379 C.3     1  UNL1        0.2525
     17 O         143.7305  137.9462  162.0514 O.3     1  UNL1       -0.4713
     18 O         144.9299  142.5679  164.1011 O.3     1  UNL1       -0.4726
     19 C         144.0992  143.8151  164.0354 C.3     1  UNL1        0.2370
     20 C         144.0428  144.6127  162.7663 C.3     1  UNL1        0.1847
     21 O         142.7934  145.3602  162.4052 O.3     1  UNL1       -0.3784
     22 H         142.0776  144.7289  162.2322 H       1  UNL1        0.2106
     23 C         139.6815  139.9805  167.0564 C.2     1  UNL1        0.1964
     24 O         138.7024  139.3820  168.0223 O.2     1  UNL1       -0.2892
     25 C         139.2135  140.4603  165.7145 C.2     1  UNL1        0.0569
     26 C         138.9461  141.8859  165.3320 C.2     1  UNL1        0.1014
     27 N         138.4981  141.9054  163.9006 N.2     1  UNL1       -0.2477
     28 C         138.4886  140.4919  163.3985 C.2     1  UNL1        0.0635
     29 C         138.1345  139.9028  162.0653 C.3     1  UNL1        0.0717
     30 C         138.2225  138.4205  161.8532 C.2     1  UNL1       -0.0198
     31 C         138.6647  137.5274  162.9743 C.2     1  UNL1       -0.0041
     32 C         139.0188  138.1165  164.3075 C.2     1  UNL1        0.0010
     33 C         138.9308  139.5988  164.5196 C.2     1  UNL1        0.0182
@<TRIPOS>BOND
     1    16    17    1
     2    17    10    1
     3    10    11   ar
     4    11    12   ar
     5    12     8    1
     6     8     1    1
     7     1    23    1
     8    23    24    2
     9    23    25    1
    10    25    26    2
    11    26    27    1
    12    27    28    2
    13    28    29    1
    14    29    30    1
    15    30    31    2
    16    31    32    1
    17    32    33    2
    18     1     2    1
    19     2     3   ar
    20     3     4   ar
    21     4     5   ar
    22     5     6   ar
    23     6     7   ar
    24    12    13   ar
    25    13    14   ar
    26    14    18    1
    27    18    19    1
    28    19    20    1
    29    20    21    1
    30    14    15   ar
    31    15    10   ar
    32    33    25    1
    33     7     2   ar
    34    33    28    1
    35     8     9    1
    36    21    22    1
@<TRIPOS>MOLECULE
*****
 33 36 0 0 0
SMALL
GASTEIGER

@<TRIPOS>ATOM
      1 C         142.4039  141.0545  167.2270 C.3     1  UNL1        0.1548
      2 C         141.3888  141.3358  168.2949 C.ar    1  UNL1        0.0028
      3 C         140.3193  140.3284  168.5971 C.ar    1  UNL1       -0.0023
      4 C         139.3041  140.6097  169.6650 C.ar    1  UNL1       -0.0003
      5 C         139.3586  141.8984  170.4306 C.ar    1  UNL1       -0.0000
      6 C         140.4281  142.9058  170.1284 C.ar    1  UNL1       -0.0003
      7 C         141.4432  142.6245  169.0605 C.ar    1  UNL1       -0.0023
      8 N         143.0543  142.1894  166.4928 N.pl3   1  UNL1       -0.3245
      9 H         143.9438  142.5086  166.7687 H       1  UNL1        0.1474
     10 C         140.1745  143.7722  164.2678 C.ar    1  UNL1        0.1430
     11 C         140.8794  143.1236  165.4221 C.ar    1  UNL1        0.0514
     12 C         142.3495  142.8379  165.3384 C.ar    1  UNL1        0.0512
     13 C         143.1148  143.2006  164.1004 C.ar    1  UNL1        0.0514
     14 C         142.4100  143.8492  162.9461 C.ar    1  UNL1        0.1429
     15 C         140.9398  144.1349  163.0297 C.ar    1  UNL1        0.0738
     16 C         137.9074  144.2618  163.0970 C.3     1  UNL1        0.2525
     17 O         138.7043  144.0580  164.3513 O.3     1  UNL1       -0.4713
     18 O         143.1753  144.2119  161.7080 O.3     1  UNL1       -0.4726
     19 C         143.5038  143.1573  160.6934 C.3     1  UNL1        0.2370
     20 C         144.6205  142.1897  160.9519 C.3     1  UNL1        0.1847
     21 O         144.3125  140.7886  161.3898 O.3     1  UNL1       -0.3784
     22 H         143.9065  140.8070  162.2706 H       1  UNL1        0.2106
     23 C         142.7686  139.6382  166.8932 C.2     1  UNL1        0.1964
     24 O         143.2614  138.7172  167.9696 O.2     1  UNL1       -0.2892
     25 C         142.6405  139.1432  165.4830 C.2     1  UNL1        0.0569
     26 C         143.7514  139.0400  164.4805 C.2     1  UNL1        0.1014
     27 N         143.1764  138.4975  163.2057 N.2     1  UNL1       -0.2477
     28 C         141.7101  138.2653  163.4204 C.2     1  UNL1        0.0635
     29 C         140.6337  137.7421  162.5162 C.3     1  UNL1        0.0717
     30 C         139.2262  137.6180  163.0195 C.2     1  UNL1       -0.0198
     31 C         138.8949  138.0171  164.4270 C.2     1  UNL1       -0.0041
     32 C         139.9713  138.5403  165.3312 C.2     1  UNL1        0.0010
     33 C         141.3788  138.6644  164.8279 C.2     1  UNL1        0.0182
@<TRIPOS>BOND
     1    16    17    1
     2    17    10    1
     3    10    11   ar
     4    11    12   ar
     5    12     8    1
     6     8     1    1
     7     1    23    1
     8    23    24    2
     9    23    25    1
    10    25    26    2
    11    26    27    1
    12    27    28    2
    13    28    29    1
    14    29    30    1
    15    30    31    2
    16    31    32    1
    17    32    33    2
    18     1     2    1
    19     2     3   ar
    20     3     4   ar
    21     4     5   ar
    22     5     6   ar
    23     6     7   ar
    24    12    13   ar
    25    13    14   ar
    26    14    18    1
    27    18    19    1
    28    19    20    1
    29    20    21    1
    30    14    15   ar
    31    15    10   ar
    32    33    25    1
    33     7     2   ar
    34    33    28    1
    35     8     9    1
    36    21    22    1
@<TRIPOS>MOLECULE
*****
 33 36 0 0 0
SMALL
GASTEIGER

@<TRIPOS>ATOM
      1 C         142.7920  142.1762  166.1962 C.3     1  UNL1        0.1548
      2 C         142.3442  142.4330  167.6046 C.ar    1  UNL1        0.0028
      3 C         140.9460  142.9053  167.8728 C.ar    1  UNL1       -0.0023
      4 C         140.4982  143.1620  169.2812 C.ar    1  UNL1       -0.0003
      5 C         141.4487  142.9464  170.4213 C.ar    1  UNL1       -0.0000
      6 C         142.8470  142.4741  170.1532 C.ar    1  UNL1       -0.0003
      7 C         143.2947  142.2174  168.7448 C.ar    1  UNL1       -0.0023
      8 N         142.4540  140.8772  165.5268 N.pl3   1  UNL1       -0.3245
      9 H         143.1726  140.3013  165.1785 H       1  UNL1        0.1474
     10 C         138.8691  139.4260  166.4167 C.ar    1  UNL1        0.1430
     11 C         140.3018  139.8477  166.5554 C.ar    1  UNL1        0.0514
     12 C         141.0212  140.4555  165.3879 C.ar    1  UNL1        0.0512
     13 C         140.3079  140.6414  164.0816 C.ar    1  UNL1        0.0514
     14 C         138.8751  140.2197  163.9428 C.ar    1  UNL1        0.1429
     15 C         138.1557  139.6120  165.1103 C.ar    1  UNL1        0.0738
     16 C         137.0994  137.7718  167.3559 C.3     1  UNL1        0.2525
     17 O         138.1496  138.8182  167.5842 O.3     1  UNL1       -0.4713
     18 O         138.1617  140.4057  162.6365 O.3     1  UNL1       -0.4726
     19 C         138.7701  139.8837  161.3687 C.3     1  UNL1        0.2370
     20 C         138.8472  138.4053  161.1269 C.3     1  UNL1        0.1847
     21 O         137.9334  137.4755  161.8687 O.3     1  UNL1       -0.3784
     22 H         138.1487  137.4967  162.8143 H       1  UNL1        0.2106
     23 C         143.5778  143.2187  165.4572 C.2     1  UNL1        0.1964
     24 O         144.8310  143.7805  166.0601 O.2     1  UNL1       -0.2892
     25 C         143.1103  143.6991  164.1153 C.2     1  UNL1        0.0569
     26 C         143.9482  143.8051  162.8757 C.2     1  UNL1        0.1014
     27 N         143.0785  144.3294  161.7718 N.2     1  UNL1       -0.2477
     28 C         141.7030  144.5475  162.3292 C.2     1  UNL1        0.0635
     29 C         140.4352  145.0504  161.7049 C.3     1  UNL1        0.0717
     30 C         139.1871  145.1638  162.5291 C.2     1  UNL1       -0.0198
     31 C         139.2068  144.7743  163.9775 C.2     1  UNL1       -0.0041
     32 C         140.4746  144.2713  164.6017 C.2     1  UNL1        0.0010
     33 C         141.7227  144.1579  163.7776 C.2     1  UNL1        0.0182
@<TRIPOS>BOND
     1    16    17    1
     2    17    10    1
     3    10    11   ar
     4    11    12   ar
     5    12     8    1
     6     8     1    1
     7     1    23    1
     8    23    24    2
     9    23    25    1
    10    25    26    2
    11    26    27    1
    12    27    28    2
    13    28    29    1
    14    29    30    1
    15    30    31    2
    16    31    32    1
    17    32    33    2
    18     1     2    1
    19     2     3   ar
    20     3     4   ar
    21     4     5   ar
    22     5     6   ar
    23     6     7   ar
    24    12    13   ar
    25    13    14   ar
    26    14    18    1
    27    18    19    1
    28    19    20    1
    29    20    21    1
    30    14    15   ar
    31    15    10   ar
    32    33    25    1
    33     7     2   ar
    34    33    28    1
    35     8     9    1
    36    21    22    1
