@<TRIPOS>MOLECULE
*****
 38 42 0 0 0
SMALL
GASTEIGER

@<TRIPOS>ATOM
      1 N         139.9082  139.0493  165.8298 N.3     1  UNL1       -0.2750
      2 C         140.0100  139.6420  167.2040 C.3     1  UNL1        0.0594
      3 C         138.6669  139.5223  167.8612 C.3     1  UNL1        0.0174
      4 C         137.7351  138.8556  166.8931 C.3     1  UNL1        0.0174
      5 C         138.5022  138.5633  165.6377 C.3     1  UNL1        0.0594
      6 C         139.5054  138.3966  164.5219 C.3     1  UNL1        0.0386
      7 C         140.8671  138.9285  164.8574 C.3     1  UNL1        0.0890
      8 C         141.1194  139.5513  166.1986 C.3     1  UNL1        0.0386
      9 N         141.9765  138.8378  163.8519 N.ar    1  UNL1       -0.3202
     10 C         143.4440  138.7948  164.1597 C.ar    1  UNL1        0.1201
     11 C         144.0597  138.8351  165.5269 C.3     1  UNL1        0.0718
     12 N         144.1876  138.7046  162.8601 N.ar    1  UNL1       -0.2339
     13 C         143.1798  138.6917  161.7492 C.ar    1  UNL1        0.0919
     14 C         141.8132  138.7741  162.3622 C.ar    1  UNL1        0.0549
     15 C         140.5967  138.7803  161.4847 C.3     1  UNL1        0.0666
     16 C         140.7468  138.7043  159.9942 C.3     1  UNL1        0.1000
     17 N         142.1133  138.6220  159.3812 N.am    1  UNL1       -0.2735
     18 C         142.2634  138.5460  157.8906 C.2     1  UNL1        0.2254
     19 O         143.5447  138.4594  157.1156 O.2     1  UNL1       -0.2749
     20 C         143.3298  138.6157  160.2587 C.3     1  UNL1        0.1405
     21 C         141.0469  138.5523  157.0131 C.3     1  UNL1        0.0767
     22 C         140.4057  137.2573  156.6106 C.3     1  UNL1        0.0096
     23 C         140.4715  139.8535  156.5380 C.3     1  UNL1        0.0096
     24 C         141.0176  138.9586  164.8244 C.3     1  UNL1        0.0741
     25 C         141.2412  140.0778  163.8512 C.3     1  UNL1        0.0414
     26 C         141.2262  141.5002  164.3274 C.3     1  UNL1        0.0955
     27 C         139.9666  142.3093  164.2340 C.ar    1  UNL1       -0.0022
     28 C         138.9025  141.9293  163.2474 C.ar    1  UNL1       -0.0025
     29 C         137.6429  142.7383  163.1540 C.ar    1  UNL1        0.0020
     30 C         137.4473  143.9273  164.0472 C.ar    1  UNL1        0.0296
     31 C         138.5113  144.3073  165.0338 C.ar    1  UNL1        0.1399
     32 F         138.4807  145.4574  165.9964 F       1  UNL1       -0.2042
     33 C         139.7710  143.4983  165.1273 C.ar    1  UNL1        0.0270
     34 C         144.9025  142.9732  164.5830 C.3     1  UNL1        0.0946
     35 C         143.6577  142.3599  164.0134 C.2     1  UNL1        0.2232
     36 O         143.9411  142.1242  162.5594 O.2     1  UNL1       -0.2751
     37 N         142.4709  142.1134  164.8970 N.am    1  UNL1       -0.3021
     38 H         142.5090  142.3542  165.8509 H       1  UNL1        0.1497
@<TRIPOS>BOND
     1    34    35    1
     2    35    36    2
     3    35    37   am
     4    37    26    1
     5    26    25    1
     6    25    24    1
     7    24     1    1
     8     1     2    1
     9     2     3    1
    10     3     4    1
    11     5     4    1
    12     5     6    1
    13     6     7    1
    14     7     9    1
    15     9    10   ar
    16    10    11    1
    17    10    12   ar
    18    12    13   ar
    19    13    14   ar
    20    14    15    1
    21    15    16    1
    22    16    17    1
    23    17    18   am
    24    18    19    2
    25    18    21    1
    26    21    22    1
    27    21    23    1
    28    17    20    1
    29     7     8    1
    30    26    27    1
    31    27    28   ar
    32    28    29   ar
    33    29    30   ar
    34    30    31   ar
    35    31    32    1
    36    31    33   ar
    37     5     1    1
    38    14     9   ar
    39    33    27   ar
    40     8     2    1
    41    20    13    1
    42    37    38    1
@<TRIPOS>MOLECULE
*****
 38 42 0 0 0
SMALL
GASTEIGER

@<TRIPOS>ATOM
      1 N         142.1016  139.5062  161.9267 N.3     1  UNL1       -0.2750
      2 C         143.1566  140.5634  161.7874 C.3     1  UNL1        0.0594
      3 C         143.8517  140.3545  160.4746 C.3     1  UNL1        0.0174
      4 C         143.2262  139.1683  159.8026 C.3     1  UNL1        0.0174
      5 C         142.1447  138.6439  160.6999 C.3     1  UNL1        0.0594
      6 C         141.1394  138.3429  161.7853 C.3     1  UNL1        0.0386
      7 C         141.2139  139.2872  162.9483 C.3     1  UNL1        0.0890
      8 C         142.2226  140.3975  162.9493 C.3     1  UNL1        0.0386
      9 N         140.2799  139.1213  164.1102 N.ar    1  UNL1       -0.3202
     10 C         139.0903  138.2092  164.1619 C.ar    1  UNL1        0.1201
     11 C         138.6257  137.3027  163.0608 C.3     1  UNL1        0.0718
     12 N         138.4467  138.3626  165.5081 N.ar    1  UNL1       -0.2339
     13 C         139.2386  139.3696  166.2884 C.ar    1  UNL1        0.0919
     14 C         140.3716  139.8385  165.4245 C.ar    1  UNL1        0.0549
     15 C         141.3404  140.8580  165.9461 C.3     1  UNL1        0.0666
     16 C         141.1762  141.4085  167.3316 C.3     1  UNL1        0.1000
     17 N         140.0432  140.9396  168.1956 N.am    1  UNL1       -0.2735
     18 C         139.8790  141.4902  169.5813 C.2     1  UNL1        0.2254
     19 O         138.8111  141.1353  170.5730 O.2     1  UNL1       -0.2749
     20 C         139.0744  139.9202  167.6740 C.3     1  UNL1        0.1405
     21 C         140.8478  142.5097  170.1029 C.3     1  UNL1        0.0767
     22 C         142.1089  142.0665  170.7837 C.3     1  UNL1        0.0096
     23 C         140.5556  143.9723  169.9438 C.3     1  UNL1        0.0096
     24 C         141.1676  139.3403  163.0886 C.3     1  UNL1        0.0741
     25 C         139.7762  139.8960  163.0176 C.3     1  UNL1        0.0414
     26 C         139.5288  141.2157  162.3488 C.3     1  UNL1        0.0955
     27 C         139.3580  142.4554  163.1757 C.ar    1  UNL1       -0.0022
     28 C         138.0683  142.7014  163.9010 C.ar    1  UNL1       -0.0025
     29 C         137.8975  143.9411  164.7280 C.ar    1  UNL1        0.0020
     30 C         139.0165  144.9348  164.8297 C.ar    1  UNL1        0.0296
     31 C         140.3062  144.6888  164.1044 C.ar    1  UNL1        0.1399
     32 F         141.5197  145.5706  164.0961 F       1  UNL1       -0.2042
     33 C         140.4771  143.4491  163.2774 C.ar    1  UNL1        0.0270
     34 C         138.2965  140.6376  158.6209 C.3     1  UNL1        0.0946
     35 C         138.3732  140.5577  160.1168 C.2     1  UNL1        0.2232
     36 O         137.2396  139.6725  160.5422 O.2     1  UNL1       -0.2751
     37 N         139.4520  141.2955  160.8529 N.am    1  UNL1       -0.3021
     38 H         140.1097  141.8322  160.3542 H       1  UNL1        0.1497
@<TRIPOS>BOND
     1    34    35    1
     2    35    36    2
     3    35    37   am
     4    37    26    1
     5    26    25    1
     6    25    24    1
     7    24     1    1
     8     1     2    1
     9     2     3    1
    10     3     4    1
    11     5     4    1
    12     5     6    1
    13     6     7    1
    14     7     9    1
    15     9    10   ar
    16    10    11    1
    17    10    12   ar
    18    12    13   ar
    19    13    14   ar
    20    14    15    1
    21    15    16    1
    22    16    17    1
    23    17    18   am
    24    18    19    2
    25    18    21    1
    26    21    22    1
    27    21    23    1
    28    17    20    1
    29     7     8    1
    30    26    27    1
    31    27    28   ar
    32    28    29   ar
    33    29    30   ar
    34    30    31   ar
    35    31    32    1
    36    31    33   ar
    37     5     1    1
    38    14     9   ar
    39    33    27   ar
    40     8     2    1
    41    20    13    1
    42    37    38    1
@<TRIPOS>MOLECULE
*****
 38 42 0 0 0
SMALL
GASTEIGER

@<TRIPOS>ATOM
      1 N         139.3400  140.1265  164.5965 N.3     1  UNL1       -0.2750
      2 C         139.7681  138.7800  164.0925 C.3     1  UNL1        0.0594
      3 C         139.2204  137.7404  165.0249 C.3     1  UNL1        0.0174
      4 C         138.4538  138.4443  166.1051 C.3     1  UNL1        0.0174
      5 C         138.5277  139.9189  165.8404 C.3     1  UNL1        0.0594
      6 C         138.7672  141.3210  165.3341 C.3     1  UNL1        0.0386
      7 C         139.5944  141.3723  164.0840 C.3     1  UNL1        0.0890
      8 C         140.0949  140.1018  163.4631 C.3     1  UNL1        0.0386
      9 N         139.9212  142.6941  163.4546 N.ar    1  UNL1       -0.3202
     10 C         139.7040  144.0431  164.0735 C.ar    1  UNL1        0.1201
     11 C         139.1219  144.3072  165.4305 C.3     1  UNL1        0.0718
     12 N         140.1711  145.0816  163.0972 N.ar    1  UNL1       -0.2339
     13 C         140.6771  144.3745  161.8749 C.ar    1  UNL1        0.0919
     14 C         140.5226  142.8989  162.0958 C.ar    1  UNL1        0.0549
     15 C         140.9495  141.9325  161.0311 C.3     1  UNL1        0.0666
     16 C         141.5308  142.4416  159.7455 C.3     1  UNL1        0.1000
     17 N         141.6853  143.9172  159.5246 N.am    1  UNL1       -0.2735
     18 C         142.2667  144.4262  158.2389 C.2     1  UNL1        0.2254
     19 O         142.4910  145.8586  157.8543 O.2     1  UNL1       -0.2749
     20 C         141.2584  144.8836  160.5893 C.3     1  UNL1        0.1405
     21 C         142.6936  143.4598  157.1742 C.3     1  UNL1        0.0767
     22 C         141.7839  143.1679  156.0177 C.3     1  UNL1        0.0096
     23 C         144.0302  142.7851  157.2659 C.3     1  UNL1        0.0096
     24 C         139.6668  141.4482  163.9671 C.3     1  UNL1        0.0741
     25 C         140.8070  142.2682  164.4939 C.3     1  UNL1        0.0414
     26 C         142.0818  141.5983  164.9135 C.3     1  UNL1        0.0955
     27 C         142.2862  141.2055  166.3467 C.ar    1  UNL1       -0.0022
     28 C         142.2828  139.7566  166.7350 C.ar    1  UNL1       -0.0025
     29 C         142.4872  139.3637  168.1681 C.ar    1  UNL1        0.0020
     30 C         142.6950  140.4198  169.2129 C.ar    1  UNL1        0.0296
     31 C         142.6984  141.8686  168.8246 C.ar    1  UNL1        0.1399
     32 F         142.8905  143.0464  169.7335 F       1  UNL1       -0.2042
     33 C         142.4940  142.2615  167.3915 C.ar    1  UNL1        0.0270
     34 C         145.5259  141.7839  162.9505 C.3     1  UNL1        0.0946
     35 C         144.4555  142.0610  163.9641 C.2     1  UNL1        0.2232
     36 O         145.0131  143.1122  164.8773 O.2     1  UNL1       -0.2751
     37 N         143.1522  141.3212  163.8999 N.am    1  UNL1       -0.3021
     38 H         142.9994  140.6538  163.1925 H       1  UNL1        0.1497
@<TRIPOS>BOND
     1    34    35    1
     2    35    36    2
     3    35    37   am
     4    37    26    1
     5    26    25    1
     6    25    24    1
     7    24     1    1
     8     1     2    1
     9     2     3    1
    10     3     4    1
    11     5     4    1
    12     5     6    1
    13     6     7    1
    14     7     9    1
    15     9    10   ar
    16    10    11    1
    17    10    12   ar
    18    12    13   ar
    19    13    14   ar
    20    14    15    1
    21    15    16    1
    22    16    17    1
    23    17    18   am
    24    18    19    2
    25    18    21    1
    26    21    22    1
    27    21    23    1
    28    17    20    1
    29     7     8    1
    30    26    27    1
    31    27    28   ar
    32    28    29   ar
    33    29    30   ar
    34    30    31   ar
    35    31    32    1
    36    31    33   ar
    37     5     1    1
    38    14     9   ar
    39    33    27   ar
    40     8     2    1
    41    20    13    1
    42    37    38    1
@<TRIPOS>MOLECULE
*****
 38 42 0 0 0
SMALL
GASTEIGER

@<TRIPOS>ATOM
      1 N         138.8954  139.9072  164.5619 N.3     1  UNL1       -0.2750
      2 C         138.1023  139.7484  165.8252 C.3     1  UNL1        0.0594
      3 C         138.1405  138.3011  166.2178 C.3     1  UNL1        0.0174
      4 C         138.9573  137.5655  165.1971 C.3     1  UNL1        0.0174
      5 C         139.4238  138.5580  164.1738 C.3     1  UNL1        0.0594
      6 C         139.7420  139.7568  163.3130 C.3     1  UNL1        0.0386
      7 C         139.1473  141.0352  163.8247 C.3     1  UNL1        0.0890
      8 C         138.3274  141.0310  165.0809 C.3     1  UNL1        0.0386
      9 N         139.3724  142.3179  163.0803 N.ar    1  UNL1       -0.3202
     10 C         138.7474  143.6437  163.3991 C.ar    1  UNL1        0.1201
     11 C         137.7874  143.9196  164.5182 C.3     1  UNL1        0.0718
     12 N         139.2508  144.6451  162.4022 N.ar    1  UNL1       -0.2339
     13 C         140.1870  143.9382  161.4674 C.ar    1  UNL1        0.0919
     14 C         140.2622  142.4999  161.8865 C.ar    1  UNL1        0.0549
     15 C         141.1311  141.5418  161.1269 C.3     1  UNL1        0.0666
     16 C         141.9248  142.0220  159.9482 C.3     1  UNL1        0.1000
     17 N         141.8496  143.4604  159.5291 N.am    1  UNL1       -0.2735
     18 C         142.6434  143.9405  158.3503 C.2     1  UNL1        0.2254
     19 O         142.6858  145.3345  157.7980 O.2     1  UNL1       -0.2749
     20 C         140.9807  144.4184  160.2887 C.3     1  UNL1        0.1405
     21 C         143.5123  142.9825  157.5907 C.3     1  UNL1        0.0767
     22 C         144.8709  142.6239  158.1160 C.3     1  UNL1        0.0096
     23 C         143.0227  142.3829  156.3059 C.3     1  UNL1        0.0096
     24 C         139.1205  141.1897  163.8176 C.3     1  UNL1        0.0741
     25 C         140.1864  142.1428  164.2709 C.3     1  UNL1        0.0414
     26 C         141.3369  141.6449  165.0946 C.3     1  UNL1        0.0955
     27 C         141.1910  141.5072  166.5811 C.ar    1  UNL1       -0.0022
     28 C         141.5032  140.2000  167.2474 C.ar    1  UNL1       -0.0025
     29 C         141.3573  140.0622  168.7338 C.ar    1  UNL1        0.0020
     30 C         140.8992  141.2315  169.5541 C.ar    1  UNL1        0.0296
     31 C         140.5870  142.5387  168.8878 C.ar    1  UNL1        0.1399
     32 F         140.1206  143.8010  169.5504 F       1  UNL1       -0.2042
     33 C         140.7329  142.6765  167.4013 C.ar    1  UNL1        0.0270
     34 C         145.1818  141.6764  164.1118 C.3     1  UNL1        0.0946
     35 C         143.8853  142.0365  164.7747 C.2     1  UNL1        0.2232
     36 O         144.1981  143.1699  165.7060 O.2     1  UNL1       -0.2751
     37 N         142.6334  141.2848  164.4317 N.am    1  UNL1       -0.3021
     38 H         142.6626  140.5551  163.7714 H       1  UNL1        0.1497
@<TRIPOS>BOND
     1    34    35    1
     2    35    36    2
     3    35    37   am
     4    37    26    1
     5    26    25    1
     6    25    24    1
     7    24     1    1
     8     1     2    1
     9     2     3    1
    10     3     4    1
    11     5     4    1
    12     5     6    1
    13     6     7    1
    14     7     9    1
    15     9    10   ar
    16    10    11    1
    17    10    12   ar
    18    12    13   ar
    19    13    14   ar
    20    14    15    1
    21    15    16    1
    22    16    17    1
    23    17    18   am
    24    18    19    2
    25    18    21    1
    26    21    22    1
    27    21    23    1
    28    17    20    1
    29     7     8    1
    30    26    27    1
    31    27    28   ar
    32    28    29   ar
    33    29    30   ar
    34    30    31   ar
    35    31    32    1
    36    31    33   ar
    37     5     1    1
    38    14     9   ar
    39    33    27   ar
    40     8     2    1
    41    20    13    1
    42    37    38    1
@<TRIPOS>MOLECULE
*****
 38 42 0 0 0
SMALL
GASTEIGER

@<TRIPOS>ATOM
      1 N         139.0411  139.7828  164.5235 N.3     1  UNL1       -0.2750
      2 C         139.6552  138.4590  164.1766 C.3     1  UNL1        0.0594
      3 C         139.1293  137.4371  165.1406 C.3     1  UNL1        0.0174
      4 C         138.1901  138.1294  166.0833 C.3     1  UNL1        0.0174
      5 C         138.1356  139.5791  165.7019 C.3     1  UNL1        0.0594
      6 C         138.2764  140.9574  165.1020 C.3     1  UNL1        0.0386
      7 C         139.2136  141.0076  163.9320 C.3     1  UNL1        0.0890
      8 C         139.9031  139.7583  163.4693 C.3     1  UNL1        0.0386
      9 N         139.4614  142.3069  163.2247 N.ar    1  UNL1       -0.3202
     10 C         138.9160  143.6460  163.6238 C.ar    1  UNL1        0.1201
     11 C         138.0270  143.9210  164.8003 C.3     1  UNL1        0.0718
     12 N         139.4157  144.6619  162.6398 N.ar    1  UNL1       -0.2339
     13 C         140.2699  143.9507  161.6326 C.ar    1  UNL1        0.0919
     14 C         140.2982  142.4952  161.9941 C.ar    1  UNL1        0.0549
     15 C         141.0822  141.5294  161.1561 C.3     1  UNL1        0.0666
     16 C         141.8380  142.0190  159.9565 C.3     1  UNL1        0.1000
     17 N         141.8097  143.4746  159.5950 N.am    1  UNL1       -0.2735
     18 C         142.5655  143.9642  158.3954 C.2     1  UNL1        0.2254
     19 O         142.6458  145.3754  157.8932 O.2     1  UNL1       -0.2749
     20 C         141.0257  144.4404  160.4331 C.3     1  UNL1        0.1405
     21 C         143.3496  142.9984  157.5573 C.3     1  UNL1        0.0767
     22 C         144.7457  142.6212  157.9557 C.3     1  UNL1        0.0096
     23 C         142.7375  142.4096  156.3209 C.3     1  UNL1        0.0096
     24 C         139.2889  141.0821  163.8162 C.3     1  UNL1        0.0741
     25 C         140.3070  142.0450  164.3512 C.3     1  UNL1        0.0414
     26 C         141.5066  141.5334  165.0923 C.3     1  UNL1        0.0955
     27 C         142.8699  141.6372  164.4753 C.ar    1  UNL1       -0.0022
     28 C         143.8461  140.5074  164.6187 C.ar    1  UNL1       -0.0025
     29 C         145.2093  140.6111  164.0018 C.ar    1  UNL1        0.0020
     30 C         145.5965  141.8449  163.2414 C.ar    1  UNL1        0.0296
     31 C         144.6203  142.9747  163.0981 C.ar    1  UNL1        0.1399
     32 F         144.8400  144.2715  162.3767 F       1  UNL1       -0.2042
     33 C         143.2571  142.8709  163.7150 C.ar    1  UNL1        0.0270
     34 C         140.6287  141.1183  168.9403 C.3     1  UNL1        0.0946
     35 C         140.7924  141.7338  167.5822 C.2     1  UNL1        0.2232
     36 O         140.3173  143.1507  167.7106 O.2     1  UNL1       -0.2751
     37 N         141.3429  140.9178  166.4503 N.am    1  UNL1       -0.3021
     38 H         141.5968  139.9783  166.5988 H       1  UNL1        0.1497
@<TRIPOS>BOND
     1    34    35    1
     2    35    36    2
     3    35    37   am
     4    37    26    1
     5    26    25    1
     6    25    24    1
     7    24     1    1
     8     1     2    1
     9     2     3    1
    10     3     4    1
    11     5     4    1
    12     5     6    1
    13     6     7    1
    14     7     9    1
    15     9    10   ar
    16    10    11    1
    17    10    12   ar
    18    12    13   ar
    19    13    14   ar
    20    14    15    1
    21    15    16    1
    22    16    17    1
    23    17    18   am
    24    18    19    2
    25    18    21    1
    26    21    22    1
    27    21    23    1
    28    17    20    1
    29     7     8    1
    30    26    27    1
    31    27    28   ar
    32    28    29   ar
    33    29    30   ar
    34    30    31   ar
    35    31    32    1
    36    31    33   ar
    37     5     1    1
    38    14     9   ar
    39    33    27   ar
    40     8     2    1
    41    20    13    1
    42    37    38    1
@<TRIPOS>MOLECULE
*****
 38 42 0 0 0
SMALL
GASTEIGER

@<TRIPOS>ATOM
      1 N         142.7496  140.6387  166.4838 N.3     1  UNL1       -0.2750
      2 C         143.0767  142.0773  166.7548 C.3     1  UNL1        0.0594
      3 C         143.1329  142.2678  168.2416 C.3     1  UNL1        0.0174
      4 C         142.8404  140.9469  168.8895 C.3     1  UNL1        0.0174
      5 C         142.6036  139.9401  167.8032 C.3     1  UNL1        0.0594
      6 C         142.4162  139.1600  166.5242 C.3     1  UNL1        0.0386
      7 C         142.5924  139.9891  165.2867 C.3     1  UNL1        0.0890
      8 C         142.9226  141.4478  165.4020 C.3     1  UNL1        0.0386
      9 N         142.4383  139.3596  163.9339 N.ar    1  UNL1       -0.3202
     10 C         141.8901  137.9915  163.6554 C.ar    1  UNL1        0.1201
     11 C         141.3997  137.0125  164.6806 C.3     1  UNL1        0.0718
     12 N         141.9184  137.7741  162.1715 N.ar    1  UNL1       -0.2339
     13 C         142.4841  139.0080  161.5329 C.ar    1  UNL1        0.0919
     14 C         142.8054  139.9879  162.6222 C.ar    1  UNL1        0.0549
     15 C         143.3908  141.3256  162.2790 C.3     1  UNL1        0.0666
     16 C         143.6548  141.6834  160.8464 C.3     1  UNL1        0.1000
     17 N         143.3335  140.7035  159.7571 N.am    1  UNL1       -0.2735
     18 C         143.5975  141.0613  158.3245 C.2     1  UNL1        0.2254
     19 O         143.3384  140.2080  157.1184 O.2     1  UNL1       -0.2749
     20 C         142.7481  139.3658  160.1004 C.3     1  UNL1        0.1405
     21 C         144.1829  142.3990  157.9813 C.3     1  UNL1        0.0767
     22 C         143.2854  143.5886  157.8090 C.3     1  UNL1        0.0096
     23 C         145.6657  142.5473  157.8103 C.3     1  UNL1        0.0096
     24 C         142.5955  140.0092  165.1311 C.3     1  UNL1        0.0741
     25 C         141.2857  140.1009  164.4059 C.3     1  UNL1        0.0414
     26 C         140.1503  140.8782  165.0034 C.3     1  UNL1        0.0955
     27 C         139.8354  142.2547  164.4974 C.ar    1  UNL1       -0.0022
     28 C         140.0789  142.5985  163.0578 C.ar    1  UNL1       -0.0025
     29 C         139.7641  143.9749  162.5517 C.ar    1  UNL1        0.0020
     30 C         139.2057  145.0077  163.4854 C.ar    1  UNL1        0.0296
     31 C         138.9622  144.6639  164.9250 C.ar    1  UNL1        0.1399
     32 F         138.4131  145.5679  165.9886 F       1  UNL1       -0.2042
     33 C         139.2771  143.2874  165.4311 C.ar    1  UNL1        0.0270
     34 C         137.7112  138.4345  166.9601 C.3     1  UNL1        0.0946
     35 C         138.5316  139.0338  165.8566 C.2     1  UNL1        0.2232
     36 O         138.3270  138.1496  164.6624 O.2     1  UNL1       -0.2751
     37 N         139.3299  140.2789  166.1069 N.am    1  UNL1       -0.3021
     38 H         139.3153  140.7027  166.9953 H       1  UNL1        0.1497
@<TRIPOS>BOND
     1    34    35    1
     2    35    36    2
     3    35    37   am
     4    37    26    1
     5    26    25    1
     6    25    24    1
     7    24     1    1
     8     1     2    1
     9     2     3    1
    10     3     4    1
    11     5     4    1
    12     5     6    1
    13     6     7    1
    14     7     9    1
    15     9    10   ar
    16    10    11    1
    17    10    12   ar
    18    12    13   ar
    19    13    14   ar
    20    14    15    1
    21    15    16    1
    22    16    17    1
    23    17    18   am
    24    18    19    2
    25    18    21    1
    26    21    22    1
    27    21    23    1
    28    17    20    1
    29     7     8    1
    30    26    27    1
    31    27    28   ar
    32    28    29   ar
    33    29    30   ar
    34    30    31   ar
    35    31    32    1
    36    31    33   ar
    37     5     1    1
    38    14     9   ar
    39    33    27   ar
    40     8     2    1
    41    20    13    1
    42    37    38    1
@<TRIPOS>MOLECULE
*****
 38 42 0 0 0
SMALL
GASTEIGER

@<TRIPOS>ATOM
      1 N         139.7362  143.7189  163.7285 N.3     1  UNL1       -0.2750
      2 C         138.5272  142.8322  163.6836 C.3     1  UNL1        0.0594
      3 C         137.5037  143.3957  164.6243 C.3     1  UNL1        0.0174
      4 C         138.0802  144.6308  165.2506 C.3     1  UNL1        0.0174
      5 C         139.4599  144.8306  164.6970 C.3     1  UNL1        0.0594
      6 C         140.7890  144.7801  163.9827 C.3     1  UNL1        0.0386
      7 C         140.9216  143.6149  163.0476 C.3     1  UNL1        0.0890
      8 C         139.7906  142.6409  162.8979 C.3     1  UNL1        0.0386
      9 N         142.1850  143.4236  162.2619 N.ar    1  UNL1       -0.3202
     10 C         143.4939  144.1107  162.5161 C.ar    1  UNL1        0.1201
     11 C         143.7692  145.1098  163.6006 C.3     1  UNL1        0.0718
     12 N         144.4791  143.6234  161.4954 N.ar    1  UNL1       -0.2339
     13 C         143.7791  142.6350  160.6104 C.ar    1  UNL1        0.0919
     14 C         142.3613  142.5116  161.0841 C.ar    1  UNL1        0.0549
     15 C         141.4139  141.5846  160.3819 C.3     1  UNL1        0.0666
     16 C         141.8844  140.7812  159.2059 C.3     1  UNL1        0.1000
     17 N         143.3023  140.9046  158.7322 N.am    1  UNL1       -0.2735
     18 C         143.7727  140.1011  157.5561 C.2     1  UNL1        0.2254
     19 O         145.1465  140.1019  156.9537 O.2     1  UNL1       -0.2749
     20 C         144.2496  141.8316  159.4344 C.3     1  UNL1        0.1405
     21 C         142.8254  139.1742  156.8538 C.3     1  UNL1        0.0767
     22 C         142.6944  137.7504  157.3077 C.3     1  UNL1        0.0096
     23 C         142.0090  139.6708  155.6976 C.3     1  UNL1        0.0096
     24 C         140.9995  143.5277  162.9429 C.3     1  UNL1        0.0741
     25 C         142.1864  142.8679  163.5801 C.3     1  UNL1        0.0414
     26 C         141.9925  141.6857  164.4829 C.3     1  UNL1        0.0955
     27 C         141.8620  141.8862  165.9637 C.ar    1  UNL1       -0.0022
     28 C         140.5119  141.8176  166.6137 C.ar    1  UNL1       -0.0025
     29 C         140.3814  142.0180  168.0945 C.ar    1  UNL1        0.0020
     30 C         141.6010  142.2871  168.9253 C.ar    1  UNL1        0.0296
     31 C         142.9511  142.3557  168.2752 C.ar    1  UNL1        0.1399
     32 F         144.2658  142.6135  168.9499 F       1  UNL1       -0.2042
     33 C         143.0816  142.1553  166.7945 C.ar    1  UNL1        0.0270
     34 C         143.0735  138.3292  162.6622 C.3     1  UNL1        0.0946
     35 C         143.1369  139.7118  163.2403 C.2     1  UNL1        0.2232
     36 O         144.5302  140.2040  162.9828 O.2     1  UNL1       -0.2751
     37 N         141.9291  140.3030  163.9048 N.am    1  UNL1       -0.3021
     38 H         141.0947  139.7836  163.9615 H       1  UNL1        0.1497
@<TRIPOS>BOND
     1    34    35    1
     2    35    36    2
     3    35    37   am
     4    37    26    1
     5    26    25    1
     6    25    24    1
     7    24     1    1
     8     1     2    1
     9     2     3    1
    10     3     4    1
    11     5     4    1
    12     5     6    1
    13     6     7    1
    14     7     9    1
    15     9    10   ar
    16    10    11    1
    17    10    12   ar
    18    12    13   ar
    19    13    14   ar
    20    14    15    1
    21    15    16    1
    22    16    17    1
    23    17    18   am
    24    18    19    2
    25    18    21    1
    26    21    22    1
    27    21    23    1
    28    17    20    1
    29     7     8    1
    30    26    27    1
    31    27    28   ar
    32    28    29   ar
    33    29    30   ar
    34    30    31   ar
    35    31    32    1
    36    31    33   ar
    37     5     1    1
    38    14     9   ar
    39    33    27   ar
    40     8     2    1
    41    20    13    1
    42    37    38    1
@<TRIPOS>MOLECULE
*****
 38 42 0 0 0
SMALL
GASTEIGER

@<TRIPOS>ATOM
      1 N         142.9799  140.6289  166.9876 N.3     1  UNL1       -0.2750
      2 C         142.7891  141.3883  168.2670 C.3     1  UNL1        0.0594
      3 C         142.5856  140.3932  169.3709 C.3     1  UNL1        0.0174
      4 C         142.6506  139.0188  168.7736 C.3     1  UNL1        0.0174
      5 C         142.8942  139.1643  167.3008 C.3     1  UNL1        0.0594
      6 C         143.1367  139.6074  165.8780 C.3     1  UNL1        0.0386
      7 C         143.1980  141.0975  165.7178 C.3     1  UNL1        0.0890
      8 C         143.0242  141.9880  166.9124 C.3     1  UNL1        0.0386
      9 N         143.4331  141.6972  164.3631 N.ar    1  UNL1       -0.3202
     10 C         144.0452  143.0385  164.0869 C.ar    1  UNL1        0.1201
     11 C         144.5295  144.0156  165.1167 C.3     1  UNL1        0.0718
     12 N         144.0877  143.2311  162.5999 N.ar    1  UNL1       -0.2339
     13 C         143.5020  142.0089  161.9572 C.ar    1  UNL1        0.0919
     14 C         143.0975  141.0608  163.0469 C.ar    1  UNL1        0.0549
     15 C         142.4757  139.7406  162.6999 C.3     1  UNL1        0.0666
     16 C         142.2585  139.3685  161.2632 C.3     1  UNL1        0.1000
     17 N         142.6631  140.3165  160.1735 N.am    1  UNL1       -0.2735
     18 C         142.4458  139.9443  158.7366 C.2     1  UNL1        0.2254
     19 O         142.7884  140.7661  157.5295 O.2     1  UNL1       -0.2749
     20 C         143.2848  141.6367  160.5204 C.3     1  UNL1        0.1405
     21 C         141.8241  138.6241  158.3897 C.3     1  UNL1        0.0767
     22 C         140.3310  138.4883  158.3393 C.3     1  UNL1        0.0096
     23 C         142.6953  137.4396  158.0930 C.3     1  UNL1        0.0096
     24 C         143.2150  141.2285  165.6330 C.3     1  UNL1        0.0741
     25 C         142.0503  141.6514  164.7876 C.3     1  UNL1        0.0414
     26 C         140.6904  141.7981  165.4035 C.3     1  UNL1        0.0955
     27 C         139.8465  140.5841  165.6562 C.ar    1  UNL1       -0.0022
     28 C         139.3049  140.3200  167.0299 C.ar    1  UNL1       -0.0025
     29 C         138.4610  139.1060  167.2827 C.ar    1  UNL1        0.0020
     30 C         138.1586  138.1561  166.1618 C.ar    1  UNL1        0.0296
     31 C         138.7002  138.4203  164.7882 C.ar    1  UNL1        0.1399
     32 F         138.4976  137.5815  163.5612 F       1  UNL1       -0.2042
     33 C         139.5442  139.6343  164.5353 C.ar    1  UNL1        0.0270
     34 C         138.3903  145.0304  165.5128 C.3     1  UNL1        0.0946
     35 C         138.9062  143.6695  165.1496 C.2     1  UNL1        0.2232
     36 O         137.9269  143.1059  164.1632 O.2     1  UNL1       -0.2751
     37 N         140.1745  143.1590  165.7666 N.am    1  UNL1       -0.3021
     38 H         140.6684  143.7171  166.4099 H       1  UNL1        0.1497
@<TRIPOS>BOND
     1    34    35    1
     2    35    36    2
     3    35    37   am
     4    37    26    1
     5    26    25    1
     6    25    24    1
     7    24     1    1
     8     1     2    1
     9     2     3    1
    10     3     4    1
    11     5     4    1
    12     5     6    1
    13     6     7    1
    14     7     9    1
    15     9    10   ar
    16    10    11    1
    17    10    12   ar
    18    12    13   ar
    19    13    14   ar
    20    14    15    1
    21    15    16    1
    22    16    17    1
    23    17    18   am
    24    18    19    2
    25    18    21    1
    26    21    22    1
    27    21    23    1
    28    17    20    1
    29     7     8    1
    30    26    27    1
    31    27    28   ar
    32    28    29   ar
    33    29    30   ar
    34    30    31   ar
    35    31    32    1
    36    31    33   ar
    37     5     1    1
    38    14     9   ar
    39    33    27   ar
    40     8     2    1
    41    20    13    1
    42    37    38    1
@<TRIPOS>MOLECULE
*****
 38 42 0 0 0
SMALL
GASTEIGER

@<TRIPOS>ATOM
      1 N         138.8607  139.7759  164.5940 N.3     1  UNL1       -0.2750
      2 C         138.1060  139.5981  165.8781 C.3     1  UNL1        0.0594
      3 C         138.1279  138.1403  166.2308 C.3     1  UNL1        0.0174
      4 C         138.8962  137.4171  165.1646 C.3     1  UNL1        0.0174
      5 C         139.3491  138.4278  164.1531 C.3     1  UNL1        0.0594
      6 C         139.6632  139.6433  163.3144 C.3     1  UNL1        0.0386
      7 C         139.1111  140.9185  163.8790 C.3     1  UNL1        0.0890
      8 C         138.3325  140.8959  165.1610 C.3     1  UNL1        0.0386
      9 N         139.3376  142.2163  163.1619 N.ar    1  UNL1       -0.3202
     10 C         138.7165  143.5364  163.5105 C.ar    1  UNL1        0.1201
     11 C         137.7597  143.7904  164.6375 C.3     1  UNL1        0.0718
     12 N         139.2200  144.5578  162.5342 N.ar    1  UNL1       -0.2339
     13 C         140.1524  143.8690  161.5822 C.ar    1  UNL1        0.0919
     14 C         140.2251  142.4219  161.9701 C.ar    1  UNL1        0.0549
     15 C         141.0900  141.4783  161.1881 C.3     1  UNL1        0.0666
     16 C         141.8822  141.9819  160.0182 C.3     1  UNL1        0.1000
     17 N         141.8095  143.4291  159.6303 N.am    1  UNL1       -0.2735
     18 C         142.6018  143.9326  158.4603 C.2     1  UNL1        0.2254
     19 O         142.6462  145.3380  157.9379 O.2     1  UNL1       -0.2749
     20 C         140.9446  144.3726  160.4123 C.3     1  UNL1        0.1405
     21 C         143.4666  142.9890  157.6783 C.3     1  UNL1        0.0767
     22 C         144.8348  142.6344  158.1807 C.3     1  UNL1        0.0096
     23 C         142.9634  142.4001  156.3938 C.3     1  UNL1        0.0096
     24 C         139.0872  141.0736  163.8769 C.3     1  UNL1        0.0741
     25 C         140.2481  141.9457  164.2531 C.3     1  UNL1        0.0414
     26 C         141.1244  141.5698  165.4111 C.3     1  UNL1        0.0955
     27 C         142.3749  140.7747  165.1783 C.ar    1  UNL1       -0.0022
     28 C         143.4067  141.2669  164.2072 C.ar    1  UNL1       -0.0025
     29 C         144.6572  140.4719  163.9744 C.ar    1  UNL1        0.0020
     30 C         144.8758  139.1846  164.7128 C.ar    1  UNL1        0.0296
     31 C         143.8440  138.6925  165.6839 C.ar    1  UNL1        0.1399
     32 F         143.9004  137.4361  166.5016 F       1  UNL1       -0.2042
     33 C         142.5935  139.4875  165.9167 C.ar    1  UNL1        0.0270
     34 C         141.4434  142.8041  169.1694 C.3     1  UNL1        0.0946
     35 C         141.8176  142.3848  167.7787 C.2     1  UNL1        0.2232
     36 O         143.3131  142.4759  167.7078 O.2     1  UNL1       -0.2751
     37 N         140.7502  141.9891  166.8018 N.am    1  UNL1       -0.3021
     38 H         139.8041  142.0045  167.0735 H       1  UNL1        0.1497
@<TRIPOS>BOND
     1    34    35    1
     2    35    36    2
     3    35    37   am
     4    37    26    1
     5    26    25    1
     6    25    24    1
     7    24     1    1
     8     1     2    1
     9     2     3    1
    10     3     4    1
    11     5     4    1
    12     5     6    1
    13     6     7    1
    14     7     9    1
    15     9    10   ar
    16    10    11    1
    17    10    12   ar
    18    12    13   ar
    19    13    14   ar
    20    14    15    1
    21    15    16    1
    22    16    17    1
    23    17    18   am
    24    18    19    2
    25    18    21    1
    26    21    22    1
    27    21    23    1
    28    17    20    1
    29     7     8    1
    30    26    27    1
    31    27    28   ar
    32    28    29   ar
    33    29    30   ar
    34    30    31   ar
    35    31    32    1
    36    31    33   ar
    37     5     1    1
    38    14     9   ar
    39    33    27   ar
    40     8     2    1
    41    20    13    1
    42    37    38    1
