@<TRIPOS>MOLECULE
*****
 41 44 0 0 0
SMALL
GASTEIGER

@<TRIPOS>ATOM
      1 C         140.2925  140.3623  164.5155 C.3     1  UNL1        0.0777
      2 C         140.2913  140.4993  166.0093 C.ar    1  UNL1        0.0373
      3 C         141.2593  141.4300  166.6778 C.ar    1  UNL1        0.0023
      4 C         141.2581  141.5670  168.1716 C.ar    1  UNL1        0.0181
      5 C         142.2261  142.4977  168.8401 C.ar    1  UNL1        0.0082
      6 C         142.2249  142.6347  170.3338 C.ar    1  UNL1        0.0347
      7 BR        143.1929  143.5653  171.0024 Br      1  UNL1       -0.0490
      8 C         141.2557  141.8411  171.1590 C.ar    1  UNL1        0.0082
      9 C         140.2877  140.9105  170.4904 C.ar    1  UNL1        0.0197
     10 C         140.2889  140.7735  168.9968 C.ar    1  UNL1        0.0844
     11 N         139.3209  139.8428  168.3282 N.ar    1  UNL1       -0.2119
     12 C         139.3221  139.7058  166.8345 C.ar    1  UNL1        0.2211
     13 O         138.3541  138.7751  166.1659 O.3     1  UNL1       -0.4563
     14 C         137.4145  137.9492  166.9934 C.3     1  UNL1        0.2542
     15 C         140.0418  141.5628  163.6520 C.ar    1  UNL1       -0.0132
     16 C         141.0451  141.9600  162.6101 C.ar    1  UNL1       -0.0006
     17 C         140.7944  143.1606  161.7465 C.ar    1  UNL1        0.0389
     18 C         139.5403  143.9640  161.9249 C.ar    1  UNL1        0.1659
     19 C         138.5369  143.5668  162.9668 C.ar    1  UNL1        0.1735
     20 F         137.2828  144.3702  163.1451 F       1  UNL1       -0.2010
     21 C         138.7876  142.3662  163.8303 C.ar    1  UNL1        0.0289
     22 O         139.2895  145.1646  161.0614 O.3     1  UNL1       -0.4692
     23 C         140.2432  145.5048  159.9547 C.3     1  UNL1        0.2526
     24 C         140.5445  139.0246  163.8853 C.3     1  UNL1        0.1161
     25 O         139.1331  138.9977  163.3781 O.3     1  UNL1       -0.3820
     26 H         138.9825  138.1763  162.8846 H       1  UNL1        0.2107
     27 C         143.7444  138.2776  166.1107 C.ar    1  UNL1        0.2272
     28 C         142.3330  138.2507  165.6035 C.ar    1  UNL1        0.0559
     29 C         141.9559  139.0515  164.3925 C.ar    1  UNL1        0.0117
     30 C         142.9901  139.8791  163.6888 C.ar    1  UNL1        0.0559
     31 C         144.4015  139.9060  164.1959 C.ar    1  UNL1        0.2272
     32 N         144.7786  139.1053  165.4069 N.ar    1  UNL1       -0.1767
     33 C         145.4026  136.6966  167.3358 C.3     1  UNL1        0.2542
     34 O         144.1216  137.4768  167.3217 O.3     1  UNL1       -0.4561
     35 O         145.4357  140.7338  163.4921 O.3     1  UNL1       -0.4561
     36 C         145.0247  141.6823  162.4052 C.3     1  UNL1        0.2542
     37 C         140.7964  137.6869  163.2552 C.3     1  UNL1        0.0491
     38 C         141.4017  137.6053  161.8852 C.3     1  UNL1        0.0750
     39 N         140.8637  138.4591  160.7754 N.3     1  UNL1       -0.2702
     40 C         139.4543  138.2687  160.2986 C.3     1  UNL1        0.0897
     41 C         141.7349  139.5032  160.1425 C.3     1  UNL1        0.0897
@<TRIPOS>BOND
     1    33    34    1
     2    34    27    1
     3    27    28   ar
     4    28    29   ar
     5    29    24    1
     6    24    25    1
     7    24    37    1
     8    37    38    1
     9    38    39    1
    10    39    40    1
    11    39    41    1
    12    24     1    1
    13     1    15    1
    14    15    16   ar
    15    16    17   ar
    16    17    18   ar
    17    18    22    1
    18    22    23    1
    19    18    19   ar
    20    19    20    1
    21    19    21   ar
    22     1     2    1
    23     2     3   ar
    24     3     4   ar
    25     4     5   ar
    26     5     6   ar
    27     6     7    1
    28     6     8   ar
    29     8     9   ar
    30     9    10   ar
    31    10    11   ar
    32    11    12   ar
    33    12    13    1
    34    13    14    1
    35    29    30   ar
    36    30    31   ar
    37    31    35    1
    38    35    36    1
    39    31    32   ar
    40    32    27   ar
    41    21    15   ar
    42    12     2   ar
    43    10     4   ar
    44    25    26    1
@<TRIPOS>MOLECULE
*****
 41 44 0 0 0
SMALL
GASTEIGER

@<TRIPOS>ATOM
      1 C         141.9854  142.3792  162.4256 C.3     1  UNL1        0.0777
      2 C         142.3101  142.3751  163.8901 C.ar    1  UNL1        0.0373
      3 C         141.2421  142.0573  164.8942 C.ar    1  UNL1        0.0023
      4 C         141.5667  142.0532  166.3587 C.ar    1  UNL1        0.0181
      5 C         140.4987  141.7354  167.3627 C.ar    1  UNL1        0.0082
      6 C         140.8234  141.7314  168.8271 C.ar    1  UNL1        0.0347
      7 BR        139.7553  141.4135  169.8313 Br      1  UNL1       -0.0490
      8 C         142.2161  142.0451  169.2875 C.ar    1  UNL1        0.0082
      9 C         143.2841  142.3629  168.2834 C.ar    1  UNL1        0.0197
     10 C         142.9595  142.3670  166.8190 C.ar    1  UNL1        0.0844
     11 N         144.0275  142.6848  165.8148 N.ar    1  UNL1       -0.2119
     12 C         143.7028  142.6889  164.3504 C.ar    1  UNL1        0.2211
     13 O         144.7709  143.0067  163.3462 O.3     1  UNL1       -0.4563
     14 C         145.6513  141.9139  162.8164 C.3     1  UNL1        0.2542
     15 C         142.2012  141.1416  161.6061 C.ar    1  UNL1       -0.0132
     16 C         142.7500  141.2499  160.2143 C.ar    1  UNL1       -0.0006
     17 C         142.9658  140.0122  159.3948 C.ar    1  UNL1        0.0389
     18 C         142.6327  138.6662  159.9670 C.ar    1  UNL1        0.1659
     19 C         142.0838  138.5580  161.3588 C.ar    1  UNL1        0.1735
     20 F         141.7507  137.2120  161.9311 F       1  UNL1       -0.2010
     21 C         141.8681  139.7956  162.1783 C.ar    1  UNL1        0.0289
     22 O         142.8485  137.4286  159.1475 O.3     1  UNL1       -0.4692
     23 C         142.6841  137.4777  157.6574 C.3     1  UNL1        0.2526
     24 C         141.4450  143.6210  161.7807 C.3     1  UNL1        0.1161
     25 O         142.8309  144.0007  161.3504 O.3     1  UNL1       -0.3820
     26 H         142.8002  144.8397  160.8645 H       1  UNL1        0.2107
     27 C         138.0040  143.6067  163.7578 C.ar    1  UNL1        0.2272
     28 C         139.3899  143.9864  163.3276 C.ar    1  UNL1        0.0559
     29 C         140.0591  143.2413  162.2109 C.ar    1  UNL1        0.0117
     30 C         139.3424  142.1166  161.5245 C.ar    1  UNL1        0.0559
     31 C         137.9565  141.7369  161.9547 C.ar    1  UNL1        0.2272
     32 N         137.2873  142.4820  163.0714 N.ar    1  UNL1       -0.1767
     33 C         138.1616  145.0956  165.8811 C.3     1  UNL1        0.2542
     34 O         137.3348  144.3518  164.8746 O.3     1  UNL1       -0.4561
     35 O         137.2398  140.6121  161.2682 O.3     1  UNL1       -0.4561
     36 C         137.6989  139.1980  161.4672 C.3     1  UNL1        0.2542
     37 C         140.9046  144.8628  161.1358 C.3     1  UNL1        0.0491
     38 C         141.3723  145.2617  159.7675 C.3     1  UNL1        0.0750
     39 N         141.3366  144.2689  158.6437 N.3     1  UNL1       -0.2702
     40 C         140.0574  143.5609  158.3087 C.3     1  UNL1        0.0897
     41 C         142.5802  143.9841  157.8547 C.3     1  UNL1        0.0897
@<TRIPOS>BOND
     1    33    34    1
     2    34    27    1
     3    27    28   ar
     4    28    29   ar
     5    29    24    1
     6    24    25    1
     7    24    37    1
     8    37    38    1
     9    38    39    1
    10    39    40    1
    11    39    41    1
    12    24     1    1
    13     1    15    1
    14    15    16   ar
    15    16    17   ar
    16    17    18   ar
    17    18    22    1
    18    22    23    1
    19    18    19   ar
    20    19    20    1
    21    19    21   ar
    22     1     2    1
    23     2     3   ar
    24     3     4   ar
    25     4     5   ar
    26     5     6   ar
    27     6     7    1
    28     6     8   ar
    29     8     9   ar
    30     9    10   ar
    31    10    11   ar
    32    11    12   ar
    33    12    13    1
    34    13    14    1
    35    29    30   ar
    36    30    31   ar
    37    31    35    1
    38    35    36    1
    39    31    32   ar
    40    32    27   ar
    41    21    15   ar
    42    12     2   ar
    43    10     4   ar
    44    25    26    1
@<TRIPOS>MOLECULE
*****
 41 44 0 0 0
SMALL
GASTEIGER

@<TRIPOS>ATOM
      1 C         141.3229  141.7064  163.7601 C.3     1  UNL1        0.0777
      2 C         142.2792  141.9471  162.6297 C.ar    1  UNL1        0.0373
      3 C         142.1614  141.1495  161.3649 C.ar    1  UNL1        0.0023
      4 C         143.1177  141.3901  160.2346 C.ar    1  UNL1        0.0181
      5 C         142.9999  140.5925  158.9697 C.ar    1  UNL1        0.0082
      6 C         143.9562  140.8332  157.8395 C.ar    1  UNL1        0.0347
      7 BR        143.8384  140.0356  156.5745 Br      1  UNL1       -0.0490
      8 C         145.0304  141.8715  157.9741 C.ar    1  UNL1        0.0082
      9 C         145.1482  142.6691  159.2389 C.ar    1  UNL1        0.0197
     10 C         144.1919  142.4284  160.3692 C.ar    1  UNL1        0.0844
     11 N         144.3097  143.2260  161.6341 N.ar    1  UNL1       -0.2119
     12 C         143.3534  142.9854  162.7644 C.ar    1  UNL1        0.2211
     13 O         143.4712  143.7830  164.0293 O.3     1  UNL1       -0.4563
     14 C         143.4798  145.2819  163.9727 C.3     1  UNL1        0.2542
     15 C         141.7968  141.0306  165.0125 C.ar    1  UNL1       -0.0132
     16 C         141.5978  141.6930  166.3434 C.ar    1  UNL1       -0.0006
     17 C         142.0718  141.0171  167.5959 C.ar    1  UNL1        0.0389
     18 C         142.7447  139.6788  167.5174 C.ar    1  UNL1        0.1659
     19 C         142.9437  139.0164  166.1863 C.ar    1  UNL1        0.1735
     20 F         143.6166  137.6781  166.1077 F       1  UNL1       -0.2010
     21 C         142.4697  139.6923  164.9339 C.ar    1  UNL1        0.0289
     22 O         143.2186  139.0030  168.7698 O.3     1  UNL1       -0.4692
     23 C         142.4478  139.1638  170.0464 C.3     1  UNL1        0.2526
     24 C         139.8926  142.1416  163.6379 C.3     1  UNL1        0.1161
     25 O         140.3198  143.5755  163.7447 O.3     1  UNL1       -0.3820
     26 H         139.5399  144.1500  163.6932 H       1  UNL1        0.2107
     27 C         139.0659  138.5800  162.0947 C.ar    1  UNL1        0.2272
     28 C         139.4931  140.0139  162.2015 C.ar    1  UNL1        0.0559
     29 C         139.4654  140.7077  163.5311 C.ar    1  UNL1        0.0117
     30 C         139.0105  139.9676  164.7539 C.ar    1  UNL1        0.0559
     31 C         138.5833  138.5337  164.6471 C.ar    1  UNL1        0.2272
     32 N         138.6110  137.8399  163.3175 N.ar    1  UNL1       -0.1767
     33 C         139.7542  138.5437  159.5897 C.3     1  UNL1        0.2542
     34 O         139.0936  137.8862  160.7650 O.3     1  UNL1       -0.4561
     35 O         138.1283  137.7936  165.8699 O.3     1  UNL1       -0.4561
     36 C         137.6721  138.5535  167.0801 C.3     1  UNL1        0.2542
     37 C         138.4624  142.5769  163.5157 C.3     1  UNL1        0.0491
     38 C         138.0534  143.5086  162.4136 C.3     1  UNL1        0.0750
     39 N         138.7443  143.4461  161.0837 N.3     1  UNL1       -0.2702
     40 C         139.8430  144.4156  160.7629 C.3     1  UNL1        0.0897
     41 C         138.3365  142.4140  160.0744 C.3     1  UNL1        0.0897
@<TRIPOS>BOND
     1    33    34    1
     2    34    27    1
     3    27    28   ar
     4    28    29   ar
     5    29    24    1
     6    24    25    1
     7    24    37    1
     8    37    38    1
     9    38    39    1
    10    39    40    1
    11    39    41    1
    12    24     1    1
    13     1    15    1
    14    15    16   ar
    15    16    17   ar
    16    17    18   ar
    17    18    22    1
    18    22    23    1
    19    18    19   ar
    20    19    20    1
    21    19    21   ar
    22     1     2    1
    23     2     3   ar
    24     3     4   ar
    25     4     5   ar
    26     5     6   ar
    27     6     7    1
    28     6     8   ar
    29     8     9   ar
    30     9    10   ar
    31    10    11   ar
    32    11    12   ar
    33    12    13    1
    34    13    14    1
    35    29    30   ar
    36    30    31   ar
    37    31    35    1
    38    35    36    1
    39    31    32   ar
    40    32    27   ar
    41    21    15   ar
    42    12     2   ar
    43    10     4   ar
    44    25    26    1
@<TRIPOS>MOLECULE
*****
 41 44 0 0 0
SMALL
GASTEIGER

@<TRIPOS>ATOM
      1 C         142.2789  141.2358  163.4095 C.3     1  UNL1        0.0777
      2 C         142.4742  141.5320  164.8670 C.ar    1  UNL1        0.0373
      3 C         141.6240  140.8430  165.8929 C.ar    1  UNL1        0.0023
      4 C         141.8192  141.1392  167.3504 C.ar    1  UNL1        0.0181
      5 C         140.9690  140.4502  168.3762 C.ar    1  UNL1        0.0082
      6 C         141.1643  140.7464  169.8336 C.ar    1  UNL1        0.0347
      7 BR        140.3141  140.0573  170.8595 Br      1  UNL1       -0.0490
      8 C         142.2098  141.7316  170.2652 C.ar    1  UNL1        0.0082
      9 C         143.0600  142.4207  169.2393 C.ar    1  UNL1        0.0197
     10 C         142.8647  142.1245  167.7819 C.ar    1  UNL1        0.0844
     11 N         143.7149  142.8135  166.7560 N.ar    1  UNL1       -0.2119
     12 C         143.5196  142.5173  165.2986 C.ar    1  UNL1        0.2211
     13 O         144.3698  143.2063  164.2727 O.3     1  UNL1       -0.4563
     14 C         144.0082  144.5837  163.8015 C.3     1  UNL1        0.2542
     15 C         141.6401  142.2570  162.5157 C.ar    1  UNL1       -0.0132
     16 C         142.2702  142.5996  161.1983 C.ar    1  UNL1       -0.0006
     17 C         141.6314  143.6208  160.3043 C.ar    1  UNL1        0.0389
     18 C         140.3625  144.2995  160.7279 C.ar    1  UNL1        0.1659
     19 C         139.7324  143.9569  162.0454 C.ar    1  UNL1        0.1735
     20 F         138.4635  144.6355  162.4689 F       1  UNL1       -0.2010
     21 C         140.3712  142.9357  162.9392 C.ar    1  UNL1        0.0289
     22 O         139.7237  145.3207  159.8340 O.3     1  UNL1       -0.4692
     23 C         140.3026  145.5976  158.4783 C.3     1  UNL1        0.2526
     24 C         142.7225  139.9184  162.8460 C.3     1  UNL1        0.1161
     25 O         144.1513  140.3696  162.9156 O.3     1  UNL1       -0.3820
     26 H         144.7297  139.6637  162.5871 H       1  UNL1        0.2107
     27 C         139.2077  138.4169  163.9148 C.ar    1  UNL1        0.2272
     28 C         140.6365  138.8682  163.9844 C.ar    1  UNL1        0.0559
     29 C         141.2937  139.4671  162.7763 C.ar    1  UNL1        0.0117
     30 C         140.5220  139.6147  161.4986 C.ar    1  UNL1        0.0559
     31 C         139.0932  139.1634  161.4289 C.ar    1  UNL1        0.2272
     32 N         138.4360  138.5645  162.6370 N.ar    1  UNL1       -0.1767
     33 C         138.2523  138.6756  166.3169 C.3     1  UNL1        0.2542
     34 O         138.5506  137.8181  165.1229 O.3     1  UNL1       -0.4561
     35 O         138.3215  139.3110  160.1511 O.3     1  UNL1       -0.4561
     36 C         138.9691  139.9376  158.9520 C.3     1  UNL1        0.2542
     37 C         143.1660  138.6009  162.2824 C.3     1  UNL1        0.0491
     38 C         144.0948  138.5633  161.1052 C.3     1  UNL1        0.0750
     39 N         143.5665  138.8177  159.7246 N.3     1  UNL1       -0.2702
     40 C         143.8547  140.1206  159.0396 C.3     1  UNL1        0.0897
     41 C         142.7500  137.7691  159.0290 C.3     1  UNL1        0.0897
@<TRIPOS>BOND
     1    33    34    1
     2    34    27    1
     3    27    28   ar
     4    28    29   ar
     5    29    24    1
     6    24    25    1
     7    24    37    1
     8    37    38    1
     9    38    39    1
    10    39    40    1
    11    39    41    1
    12    24     1    1
    13     1    15    1
    14    15    16   ar
    15    16    17   ar
    16    17    18   ar
    17    18    22    1
    18    22    23    1
    19    18    19   ar
    20    19    20    1
    21    19    21   ar
    22     1     2    1
    23     2     3   ar
    24     3     4   ar
    25     4     5   ar
    26     5     6   ar
    27     6     7    1
    28     6     8   ar
    29     8     9   ar
    30     9    10   ar
    31    10    11   ar
    32    11    12   ar
    33    12    13    1
    34    13    14    1
    35    29    30   ar
    36    30    31   ar
    37    31    35    1
    38    35    36    1
    39    31    32   ar
    40    32    27   ar
    41    21    15   ar
    42    12     2   ar
    43    10     4   ar
    44    25    26    1
@<TRIPOS>MOLECULE
*****
 41 44 0 0 0
SMALL
GASTEIGER

@<TRIPOS>ATOM
      1 C         140.3979  140.5300  164.2395 C.3     1  UNL1        0.0777
      2 C         140.3250  140.6485  165.7331 C.ar    1  UNL1        0.0373
      3 C         141.3142  141.5049  166.4667 C.ar    1  UNL1        0.0023
      4 C         141.2413  141.6234  167.9603 C.ar    1  UNL1        0.0181
      5 C         142.2305  142.4797  168.6938 C.ar    1  UNL1        0.0082
      6 C         142.1576  142.5982  170.1873 C.ar    1  UNL1        0.0347
      7 BR        143.1468  143.4546  170.9209 Br      1  UNL1       -0.0490
      8 C         141.0954  141.8604  170.9472 C.ar    1  UNL1        0.0082
      9 C         140.1062  141.0041  170.2137 C.ar    1  UNL1        0.0197
     10 C         140.1792  140.8856  168.7202 C.ar    1  UNL1        0.0844
     11 N         139.1899  140.0293  167.9866 N.ar    1  UNL1       -0.2119
     12 C         139.2629  139.9107  166.4931 C.ar    1  UNL1        0.2211
     13 O         138.2736  139.0544  165.7594 O.3     1  UNL1       -0.4563
     14 C         138.2534  137.5715  165.9842 C.3     1  UNL1        0.2542
     15 C         140.2074  141.7448  163.3806 C.ar    1  UNL1       -0.0132
     16 C         140.7661  141.7744  161.9889 C.ar    1  UNL1       -0.0006
     17 C         140.5756  142.9893  161.1298 C.ar    1  UNL1        0.0389
     18 C         139.8263  144.1745  161.6625 C.ar    1  UNL1        0.1659
     19 C         139.2675  144.1448  163.0543 C.ar    1  UNL1        0.1735
     20 F         138.5182  145.3300  163.5870 F       1  UNL1       -0.2010
     21 C         139.4580  142.9300  163.9133 C.ar    1  UNL1        0.0289
     22 O         139.6357  145.3893  160.8036 O.3     1  UNL1       -0.4692
     23 C         140.3464  145.4958  159.4870 C.3     1  UNL1        0.2526
     24 C         140.6614  139.1966  163.6050 C.3     1  UNL1        0.1161
     25 O         139.2823  139.2049  163.0149 O.3     1  UNL1       -0.3820
     26 H         139.1457  138.3937  162.5009 H       1  UNL1        0.2107
     27 C         144.5031  140.0157  164.1710 C.ar    1  UNL1        0.2272
     28 C         143.1240  140.0240  163.5809 C.ar    1  UNL1        0.0559
     29 C         142.0404  139.1883  164.1951 C.ar    1  UNL1        0.0117
     30 C         142.3358  138.3442  165.3993 C.ar    1  UNL1        0.0559
     31 C         143.7149  138.3359  165.9894 C.ar    1  UNL1        0.2272
     32 N         144.7985  139.1716  165.3752 N.ar    1  UNL1       -0.1767
     33 C         145.2303  142.0213  162.6882 C.3     1  UNL1        0.2542
     34 O         145.5867  140.8515  163.5567 O.3     1  UNL1       -0.4561
     35 O         144.0102  137.4918  167.1937 O.3     1  UNL1       -0.4561
     36 C         145.3295  136.7875  167.3106 C.3     1  UNL1        0.2542
     37 C         140.9248  137.8632  162.9705 C.3     1  UNL1        0.0491
     38 C         140.4675  137.5970  161.5670 C.3     1  UNL1        0.0750
     39 N         140.9810  138.4407  160.4381 N.3     1  UNL1       -0.2702
     40 C         140.0173  139.1159  159.5078 C.3     1  UNL1        0.0897
     41 C         142.4582  138.6092  160.2394 C.3     1  UNL1        0.0897
@<TRIPOS>BOND
     1    33    34    1
     2    34    27    1
     3    27    28   ar
     4    28    29   ar
     5    29    24    1
     6    24    25    1
     7    24    37    1
     8    37    38    1
     9    38    39    1
    10    39    40    1
    11    39    41    1
    12    24     1    1
    13     1    15    1
    14    15    16   ar
    15    16    17   ar
    16    17    18   ar
    17    18    22    1
    18    22    23    1
    19    18    19   ar
    20    19    20    1
    21    19    21   ar
    22     1     2    1
    23     2     3   ar
    24     3     4   ar
    25     4     5   ar
    26     5     6   ar
    27     6     7    1
    28     6     8   ar
    29     8     9   ar
    30     9    10   ar
    31    10    11   ar
    32    11    12   ar
    33    12    13    1
    34    13    14    1
    35    29    30   ar
    36    30    31   ar
    37    31    35    1
    38    35    36    1
    39    31    32   ar
    40    32    27   ar
    41    21    15   ar
    42    12     2   ar
    43    10     4   ar
    44    25    26    1
@<TRIPOS>MOLECULE
*****
 41 44 0 0 0
SMALL
GASTEIGER

@<TRIPOS>ATOM
      1 C         141.9628  142.4029  162.3217 C.3     1  UNL1        0.0777
      2 C         142.2679  142.3708  163.7901 C.ar    1  UNL1        0.0373
      3 C         141.2014  141.9785  164.7693 C.ar    1  UNL1        0.0023
      4 C         141.5065  141.9464  166.2376 C.ar    1  UNL1        0.0181
      5 C         140.4401  141.5541  167.2168 C.ar    1  UNL1        0.0082
      6 C         140.7452  141.5221  168.6850 C.ar    1  UNL1        0.0347
      7 BR        139.6787  141.1298  169.6643 Br      1  UNL1       -0.0490
      8 C         142.1167  141.8823  169.1741 C.ar    1  UNL1        0.0082
      9 C         143.1831  142.2746  168.1950 C.ar    1  UNL1        0.0197
     10 C         142.8780  142.3066  166.7267 C.ar    1  UNL1        0.0844
     11 N         143.9445  142.6989  165.7474 N.ar    1  UNL1       -0.2119
     12 C         143.6394  142.7310  164.2792 C.ar    1  UNL1        0.2211
     13 O         144.7058  143.1233  163.2999 O.3     1  UNL1       -0.4563
     14 C         145.5663  142.0705  162.6665 C.3     1  UNL1        0.2542
     15 C         142.2188  141.1909  161.4759 C.ar    1  UNL1       -0.0132
     16 C         142.5695  141.3487  160.0260 C.ar    1  UNL1       -0.0006
     17 C         142.8256  140.1367  159.1801 C.ar    1  UNL1        0.0389
     18 C         142.7310  138.7669  159.7841 C.ar    1  UNL1        0.1659
     19 C         142.3803  138.6092  161.2340 C.ar    1  UNL1        0.1735
     20 F         142.2857  137.2394  161.8380 F       1  UNL1       -0.2010
     21 C         142.1243  139.8211  162.0799 C.ar    1  UNL1        0.0289
     22 O         142.9870  137.5550  158.9382 O.3     1  UNL1       -0.4692
     23 C         142.4327  137.4811  157.5464 C.3     1  UNL1        0.2526
     24 C         141.4017  143.6469  161.6993 C.3     1  UNL1        0.1161
     25 O         142.7747  144.0343  161.2358 O.3     1  UNL1       -0.3820
     26 H         142.7285  144.8763  160.7564 H       1  UNL1        0.2107
     27 C         137.9337  141.7359  161.9652 C.ar    1  UNL1        0.2272
     28 C         139.3067  142.1232  161.5016 C.ar    1  UNL1        0.0559
     29 C         140.0287  143.2596  162.1629 C.ar    1  UNL1        0.0117
     30 C         139.3777  144.0086  163.2877 C.ar    1  UNL1        0.0559
     31 C         138.0047  143.6213  163.7512 C.ar    1  UNL1        0.2272
     32 N         137.2827  142.4849  163.0900 N.ar    1  UNL1       -0.1767
     33 C         137.7993  139.2197  161.3321 C.3     1  UNL1        0.2542
     34 O         137.2116  140.5994  161.3039 O.3     1  UNL1       -0.4561
     35 O         137.3538  144.3704  164.8760 O.3     1  UNL1       -0.4561
     36 C         138.1985  145.0800  165.8924 C.3     1  UNL1        0.2542
     37 C         140.8406  144.8910  161.0769 C.3     1  UNL1        0.0491
     38 C         141.3220  145.3378  159.7284 C.3     1  UNL1        0.0750
     39 N         141.2215  144.4128  158.5518 N.3     1  UNL1       -0.2702
     40 C         139.9201  143.7357  158.2392 C.3     1  UNL1        0.0897
     41 C         142.4223  144.1650  157.6879 C.3     1  UNL1        0.0897
@<TRIPOS>BOND
     1    33    34    1
     2    34    27    1
     3    27    28   ar
     4    28    29   ar
     5    29    24    1
     6    24    25    1
     7    24    37    1
     8    37    38    1
     9    38    39    1
    10    39    40    1
    11    39    41    1
    12    24     1    1
    13     1    15    1
    14    15    16   ar
    15    16    17   ar
    16    17    18   ar
    17    18    22    1
    18    22    23    1
    19    18    19   ar
    20    19    20    1
    21    19    21   ar
    22     1     2    1
    23     2     3   ar
    24     3     4   ar
    25     4     5   ar
    26     5     6   ar
    27     6     7    1
    28     6     8   ar
    29     8     9   ar
    30     9    10   ar
    31    10    11   ar
    32    11    12   ar
    33    12    13    1
    34    13    14    1
    35    29    30   ar
    36    30    31   ar
    37    31    35    1
    38    35    36    1
    39    31    32   ar
    40    32    27   ar
    41    21    15   ar
    42    12     2   ar
    43    10     4   ar
    44    25    26    1
@<TRIPOS>MOLECULE
*****
 41 44 0 0 0
SMALL
GASTEIGER

@<TRIPOS>ATOM
      1 C         140.3779  141.7359  162.4555 C.3     1  UNL1        0.0777
      2 C         140.7263  142.7033  161.3633 C.ar    1  UNL1        0.0373
      3 C         139.8749  142.7814  160.1309 C.ar    1  UNL1        0.0023
      4 C         140.2233  143.7488  159.0387 C.ar    1  UNL1        0.0181
      5 C         139.3719  143.8270  157.8063 C.ar    1  UNL1        0.0082
      6 C         139.7203  144.7943  156.7141 C.ar    1  UNL1        0.0347
      7 BR        138.8689  144.8726  155.4816 Br      1  UNL1       -0.0490
      8 C         140.9202  145.6835  156.8544 C.ar    1  UNL1        0.0082
      9 C         141.7716  145.6053  158.0868 C.ar    1  UNL1        0.0197
     10 C         141.4232  144.6380  159.1790 C.ar    1  UNL1        0.0844
     11 N         142.2746  144.5597  160.4115 N.ar    1  UNL1       -0.2119
     12 C         141.9262  143.5924  161.5036 C.ar    1  UNL1        0.2211
     13 O         142.7776  143.5142  162.7361 O.3     1  UNL1       -0.4563
     14 C         143.0374  144.7486  163.5478 C.3     1  UNL1        0.2542
     15 C         140.2658  142.2136  163.8730 C.ar    1  UNL1       -0.0132
     16 C         140.9139  141.4361  164.9799 C.ar    1  UNL1       -0.0006
     17 C         140.8018  141.9138  166.3974 C.ar    1  UNL1        0.0389
     18 C         140.0417  143.1691  166.7079 C.ar    1  UNL1        0.1659
     19 C         139.3935  143.9466  165.6009 C.ar    1  UNL1        0.1735
     20 F         138.6334  145.2019  165.9114 F       1  UNL1       -0.2010
     21 C         139.5056  143.4689  164.1834 C.ar    1  UNL1        0.0289
     22 O         139.9296  143.6468  168.1253 O.3     1  UNL1       -0.4692
     23 C         140.4605  142.8024  169.2456 C.3     1  UNL1        0.2526
     24 C         140.1415  140.2908  162.1302 C.3     1  UNL1        0.1161
     25 O         138.6977  140.4419  162.5078 O.3     1  UNL1       -0.3820
     26 H         138.2424  139.5934  162.3909 H       1  UNL1        0.2107
     27 C         143.4086  139.7438  159.9446 C.ar    1  UNL1        0.2272
     28 C         141.9648  139.8949  160.3222 C.ar    1  UNL1        0.0559
     29 C         141.5853  140.1397  161.7526 C.ar    1  UNL1        0.0117
     30 C         142.6496  140.2332  162.8054 C.ar    1  UNL1        0.0559
     31 C         144.0935  140.0821  162.4277 C.ar    1  UNL1        0.2272
     32 N         144.4729  139.8374  160.9974 N.ar    1  UNL1       -0.1767
     33 C         144.3357  140.6199  157.6812 C.3     1  UNL1        0.2542
     34 O         143.7880  139.4991  158.5141 O.3     1  UNL1       -0.4561
     35 O         145.1578  140.1757  163.4806 O.3     1  UNL1       -0.4561
     36 C         145.7613  141.5062  163.8207 C.3     1  UNL1        0.2542
     37 C         139.9052  138.8457  161.8049 C.3     1  UNL1        0.0491
     38 C         139.1780  137.9668  162.7790 C.3     1  UNL1        0.0750
     39 N         139.6643  137.8520  164.1933 N.3     1  UNL1       -0.2702
     40 C         138.7906  138.3037  165.3258 C.3     1  UNL1        0.0897
     41 C         141.0242  137.2853  164.4751 C.3     1  UNL1        0.0897
@<TRIPOS>BOND
     1    33    34    1
     2    34    27    1
     3    27    28   ar
     4    28    29   ar
     5    29    24    1
     6    24    25    1
     7    24    37    1
     8    37    38    1
     9    38    39    1
    10    39    40    1
    11    39    41    1
    12    24     1    1
    13     1    15    1
    14    15    16   ar
    15    16    17   ar
    16    17    18   ar
    17    18    22    1
    18    22    23    1
    19    18    19   ar
    20    19    20    1
    21    19    21   ar
    22     1     2    1
    23     2     3   ar
    24     3     4   ar
    25     4     5   ar
    26     5     6   ar
    27     6     7    1
    28     6     8   ar
    29     8     9   ar
    30     9    10   ar
    31    10    11   ar
    32    11    12   ar
    33    12    13    1
    34    13    14    1
    35    29    30   ar
    36    30    31   ar
    37    31    35    1
    38    35    36    1
    39    31    32   ar
    40    32    27   ar
    41    21    15   ar
    42    12     2   ar
    43    10     4   ar
    44    25    26    1
@<TRIPOS>MOLECULE
*****
 41 44 0 0 0
SMALL
GASTEIGER

@<TRIPOS>ATOM
      1 C         140.6405  140.9723  161.9912 C.3     1  UNL1        0.0777
      2 C         140.1236  140.6044  163.3505 C.ar    1  UNL1        0.0373
      3 C         140.9103  140.9662  164.5753 C.ar    1  UNL1        0.0023
      4 C         140.3934  140.5983  165.9345 C.ar    1  UNL1        0.0181
      5 C         141.1802  140.9601  167.1593 C.ar    1  UNL1        0.0082
      6 C         140.6633  140.5922  168.5185 C.ar    1  UNL1        0.0347
      7 BR        141.4500  140.9540  169.7433 Br      1  UNL1       -0.0490
      8 C         139.3596  139.8625  168.6529 C.ar    1  UNL1        0.0082
      9 C         138.5729  139.5007  167.4281 C.ar    1  UNL1        0.0197
     10 C         139.0898  139.8686  166.0689 C.ar    1  UNL1        0.0844
     11 N         138.3031  139.5068  164.8441 N.ar    1  UNL1       -0.2119
     12 C         138.8200  139.8747  163.4849 C.ar    1  UNL1        0.2211
     13 O         138.0332  139.5129  162.2600 O.3     1  UNL1       -0.4563
     14 C         137.9726  138.0858  161.8021 C.3     1  UNL1        0.2542
     15 C         141.2607  139.9241  161.1157 C.ar    1  UNL1       -0.0132
     16 C         140.7146  139.6760  159.7409 C.ar    1  UNL1       -0.0006
     17 C         141.3348  138.6278  158.8653 C.ar    1  UNL1        0.0389
     18 C         142.5013  137.8277  159.3646 C.ar    1  UNL1        0.1659
     19 C         143.0474  138.0758  160.7395 C.ar    1  UNL1        0.1735
     20 F         144.2138  137.2757  161.2388 F       1  UNL1       -0.2010
     21 C         142.4272  139.1240  161.6150 C.ar    1  UNL1        0.0289
     22 O         143.1215  136.7795  158.4891 O.3     1  UNL1       -0.4692
     23 C         142.6984  136.6533  157.0556 C.3     1  UNL1        0.2526
     24 C         140.5371  142.3884  161.5075 C.3     1  UNL1        0.1161
     25 O         139.0408  142.2831  161.5191 O.3     1  UNL1       -0.3820
     26 H         138.6552  143.1238  161.2267 H       1  UNL1        0.2107
     27 C         144.2857  142.6816  162.7771 C.ar    1  UNL1        0.2272
     28 C         142.7894  142.5763  162.7887 C.ar    1  UNL1        0.0559
     29 C         142.0333  142.4937  161.4959 C.ar    1  UNL1        0.0117
     30 C         142.7735  142.5164  160.1914 C.ar    1  UNL1        0.0559
     31 C         144.2697  142.6217  160.1798 C.ar    1  UNL1        0.2272
     32 N         145.0258  142.7043  161.4726 N.ar    1  UNL1       -0.1767
     33 C         144.4468  143.4871  165.2419 C.3     1  UNL1        0.2542
     34 O         145.0418  142.7642  164.0700 O.3     1  UNL1       -0.4561
     35 O         145.0099  142.6444  158.8753 O.3     1  UNL1       -0.4561
     36 C         144.2544  142.5527  157.5827 C.3     1  UNL1        0.2542
     37 C         140.4336  143.8045  161.0238 C.3     1  UNL1        0.0491
     38 C         139.6102  144.7994  161.7867 C.3     1  UNL1        0.0750
     39 N         139.3736  144.6081  163.2555 N.3     1  UNL1       -0.2702
     40 C         140.5112  144.7488  164.2230 C.3     1  UNL1        0.0897
     41 C         137.9995  144.2760  163.7569 C.3     1  UNL1        0.0897
@<TRIPOS>BOND
     1    33    34    1
     2    34    27    1
     3    27    28   ar
     4    28    29   ar
     5    29    24    1
     6    24    25    1
     7    24    37    1
     8    37    38    1
     9    38    39    1
    10    39    40    1
    11    39    41    1
    12    24     1    1
    13     1    15    1
    14    15    16   ar
    15    16    17   ar
    16    17    18   ar
    17    18    22    1
    18    22    23    1
    19    18    19   ar
    20    19    20    1
    21    19    21   ar
    22     1     2    1
    23     2     3   ar
    24     3     4   ar
    25     4     5   ar
    26     5     6   ar
    27     6     7    1
    28     6     8   ar
    29     8     9   ar
    30     9    10   ar
    31    10    11   ar
    32    11    12   ar
    33    12    13    1
    34    13    14    1
    35    29    30   ar
    36    30    31   ar
    37    31    35    1
    38    35    36    1
    39    31    32   ar
    40    32    27   ar
    41    21    15   ar
    42    12     2   ar
    43    10     4   ar
    44    25    26    1
@<TRIPOS>MOLECULE
*****
 41 44 0 0 0
SMALL
GASTEIGER

@<TRIPOS>ATOM
      1 C         140.3169  141.6677  162.4373 C.3     1  UNL1        0.0777
      2 C         140.6866  142.6205  161.3392 C.ar    1  UNL1        0.0373
      3 C         139.8397  142.7067  160.1043 C.ar    1  UNL1        0.0023
      4 C         140.2094  143.6594  159.0062 C.ar    1  UNL1        0.0181
      5 C         139.3624  143.7456  157.7712 C.ar    1  UNL1        0.0082
      6 C         139.7322  144.6984  156.6733 C.ar    1  UNL1        0.0347
      7 BR        138.8852  144.7846  155.4382 Br      1  UNL1       -0.0490
      8 C         140.9489  145.5648  156.8103 C.ar    1  UNL1        0.0082
      9 C         141.7959  145.4786  158.0452 C.ar    1  UNL1        0.0197
     10 C         141.4261  144.5259  159.1432 C.ar    1  UNL1        0.0844
     11 N         142.2731  144.4397  160.3782 N.ar    1  UNL1       -0.2119
     12 C         141.9034  143.4870  161.4762 C.ar    1  UNL1        0.2211
     13 O         142.7504  143.4007  162.7112 O.3     1  UNL1       -0.4563
     14 C         143.0667  144.6419  163.4919 C.3     1  UNL1        0.2542
     15 C         140.2278  142.1537  163.8535 C.ar    1  UNL1       -0.0132
     16 C         140.8519  141.3568  164.9605 C.ar    1  UNL1       -0.0006
     17 C         140.7628  141.8428  166.3769 C.ar    1  UNL1        0.0389
     18 C         140.0497  143.1257  166.6861 C.ar    1  UNL1        0.1659
     19 C         139.4257  143.9226  165.5790 C.ar    1  UNL1        0.1735
     20 F         138.7126  145.2056  165.8883 F       1  UNL1       -0.2010
     21 C         139.5148  143.4366  164.1628 C.ar    1  UNL1        0.0289
     22 O         139.9607  143.6117  168.1024 O.3     1  UNL1       -0.4692
     23 C         140.5232  142.7807  169.2172 C.3     1  UNL1        0.2526
     24 C         140.0363  140.2290  162.1190 C.3     1  UNL1        0.1161
     25 O         138.5993  140.4245  162.5021 O.3     1  UNL1       -0.3820
     26 H         138.1184  139.5895  162.3907 H       1  UNL1        0.2107
     27 C         143.9840  139.9318  162.3957 C.ar    1  UNL1        0.2272
     28 C         142.5470  140.1274  162.7789 C.ar    1  UNL1        0.0559
     29 C         141.4732  140.0335  161.7358 C.ar    1  UNL1        0.0117
     30 C         141.8364  139.7440  160.3095 C.ar    1  UNL1        0.0559
     31 C         143.2734  139.5485  159.9264 C.ar    1  UNL1        0.2272
     32 N         144.3472  139.6424  160.9694 N.ar    1  UNL1       -0.1767
     33 C         145.6085  141.3651  163.8300 C.3     1  UNL1        0.2542
     34 O         145.0579  140.0258  163.4389 O.3     1  UNL1       -0.4561
     35 O         143.6366  139.2590  158.5000 O.3     1  UNL1       -0.4561
     36 C         142.7661  138.3609  157.6719 C.3     1  UNL1        0.2542
     37 C         139.7556  138.7903  161.8007 C.3     1  UNL1        0.0491
     38 C         139.0434  137.9264  162.7989 C.3     1  UNL1        0.0750
     39 N         139.5330  137.8570  164.2151 N.3     1  UNL1       -0.2702
     40 C         138.6443  138.3020  165.3385 C.3     1  UNL1        0.0897
     41 C         140.9112  137.3425  164.5078 C.3     1  UNL1        0.0897
@<TRIPOS>BOND
     1    33    34    1
     2    34    27    1
     3    27    28   ar
     4    28    29   ar
     5    29    24    1
     6    24    25    1
     7    24    37    1
     8    37    38    1
     9    38    39    1
    10    39    40    1
    11    39    41    1
    12    24     1    1
    13     1    15    1
    14    15    16   ar
    15    16    17   ar
    16    17    18   ar
    17    18    22    1
    18    22    23    1
    19    18    19   ar
    20    19    20    1
    21    19    21   ar
    22     1     2    1
    23     2     3   ar
    24     3     4   ar
    25     4     5   ar
    26     5     6   ar
    27     6     7    1
    28     6     8   ar
    29     8     9   ar
    30     9    10   ar
    31    10    11   ar
    32    11    12   ar
    33    12    13    1
    34    13    14    1
    35    29    30   ar
    36    30    31   ar
    37    31    35    1
    38    35    36    1
    39    31    32   ar
    40    32    27   ar
    41    21    15   ar
    42    12     2   ar
    43    10     4   ar
    44    25    26    1
