@<TRIPOS>MOLECULE
*****
 35 37 0 0 0
SMALL
GASTEIGER

@<TRIPOS>ATOM
      1 C         142.5206  141.3996  166.8044 C.3     1  UNL1        0.1326
      2 C         143.3946  142.2226  167.7039 C.3     1  UNL1        0.0276
      3 C         143.1952  142.5553  169.1528 C.3     1  UNL1        0.0042
      4 C         142.0727  142.1472  170.0603 C.3     1  UNL1        0.0247
      5 C         140.8723  141.3056  169.7428 C.3     1  UNL1        0.1103
      6 N         140.4980  140.6643  168.4395 N.ar    1  UNL1       -0.2802
      7 C         141.2315  140.7061  167.1319 C.ar    1  UNL1        0.1410
      8 N         140.6770  139.9878  165.9375 N.ar    1  UNL1       -0.2228
      9 C         139.3889  139.2275  166.0508 C.ar    1  UNL1        0.1740
     10 C         138.6553  139.1856  167.3585 C.ar    1  UNL1        0.2130
     11 O         137.3672  138.4254  167.4720 O.3     1  UNL1       -0.5006
     12 C         139.2098  139.9040  168.5529 C.ar    1  UNL1        0.2973
     13 O         138.4762  139.8622  169.8606 O.2     1  UNL1       -0.2636
     14 H         137.0208  137.9767  166.7259 H       1  UNL1        0.2924
     15 C         143.7453  140.0166  164.9776 C.2     1  UNL1        0.3032
     16 O         144.0130  138.9317  165.9784 O.2     1  UNL1       -0.2649
     17 N         142.9991  141.2505  165.3906 N.am    1  UNL1       -0.2654
     18 C         142.7314  142.3353  164.3898 C.3     1  UNL1        0.1157
     19 C         143.9780  138.8053  161.2055 C.3     1  UNL1        0.1154
     20 N         143.4995  138.9544  162.6193 N.am    1  UNL1       -0.2688
     21 C         142.2969  138.1906  163.0886 C.3     1  UNL1        0.1154
     22 C         144.2237  139.8674  163.5638 C.2     1  UNL1        0.3030
     23 O         145.4264  140.6312  163.0945 O.2     1  UNL1       -0.2649
     24 C         138.8344  138.5091  164.8565 C.2     1  UNL1        0.2671
     25 O         138.4719  137.0570  164.9564 O.2     1  UNL1       -0.2684
     26 N         138.6422  139.2428  163.5625 N.am    1  UNL1       -0.2956
     27 H         138.8801  140.1958  163.4969 H       1  UNL1        0.1501
     28 C         138.0877  138.5243  162.3681 C.3     1  UNL1        0.1166
     29 C         138.4673  138.9643  160.9852 C.ar    1  UNL1       -0.0024
     30 C         137.6675  140.0259  160.2900 C.ar    1  UNL1       -0.0003
     31 C         138.0472  140.4658  158.9071 C.ar    1  UNL1        0.0294
     32 C         139.2266  139.8441  158.2195 C.ar    1  UNL1        0.1401
     33 F         139.6061  140.2841  156.8367 F       1  UNL1       -0.2042
     34 C         140.0263  138.7825  158.9149 C.ar    1  UNL1        0.0294
     35 C         139.6466  138.3426  160.2978 C.ar    1  UNL1       -0.0003
@<TRIPOS>BOND
     1    19    20    1
     2    20    21    1
     3    20    22   am
     4    22    23    2
     5    22    15    1
     6    15    16    2
     7    15    17   am
     8    17    18    1
     9     1    17    1
    10     1     2    1
    11     2     3    1
    12     3     4    1
    13     4     5    1
    14     5     6    1
    15     6     7   ar
    16     7     8   ar
    17     8     9   ar
    18     9    24    1
    19    24    25    2
    20    24    26   am
    21    26    28    1
    22    28    29    1
    23    29    30   ar
    24    30    31   ar
    25    31    32   ar
    26    32    33    1
    27    32    34   ar
    28    34    35   ar
    29     9    10   ar
    30    10    11    1
    31    10    12   ar
    32    12    13    2
    33     7     1    1
    34    35    29   ar
    35    12     6   ar
    36    26    27    1
    37    11    14    1
@<TRIPOS>MOLECULE
*****
 35 37 0 0 0
SMALL
GASTEIGER

@<TRIPOS>ATOM
      1 C         140.1953  142.5923  161.6471 C.3     1  UNL1        0.1326
      2 C         139.9039  143.2104  160.3117 C.3     1  UNL1        0.0276
      3 C         139.0179  142.6958  159.2163 C.3     1  UNL1        0.0042
      4 C         138.2044  141.4359  159.1855 C.3     1  UNL1        0.0247
      5 C         138.0760  140.3795  160.2427 C.3     1  UNL1        0.1103
      6 N         138.7294  140.3222  161.5917 N.ar    1  UNL1       -0.2802
      7 C         139.6725  141.3068  162.2167 C.ar    1  UNL1        0.1410
      8 N         140.2165  141.0556  163.5918 N.ar    1  UNL1       -0.2228
      9 C         139.8173  139.8195  164.3419 C.ar    1  UNL1        0.1740
     10 C         138.8742  138.8347  163.7169 C.ar    1  UNL1        0.2130
     11 O         138.4749  137.5985  164.4669 O.3     1  UNL1       -0.5006
     12 C         138.3302  139.0860  162.3418 C.ar    1  UNL1        0.2973
     13 O         137.3870  138.1012  161.7168 O.2     1  UNL1       -0.2636
     14 H         138.8147  137.4415  165.3259 H       1  UNL1        0.2924
     15 C         142.5989  143.0416  162.5251 C.2     1  UNL1        0.3032
     16 O         143.1263  141.9527  161.6383 O.2     1  UNL1       -0.2649
     17 N         141.1334  143.3613  162.5295 N.am    1  UNL1       -0.2654
     18 C         140.6060  144.4501  163.4162 C.3     1  UNL1        0.1157
     19 C         144.8500  144.0385  165.6377 C.3     1  UNL1        0.1154
     20 N         143.9119  143.2695  164.7554 N.am    1  UNL1       -0.2688
     21 C         143.3487  141.9595  165.2208 C.3     1  UNL1        0.1154
     22 C         143.5370  143.8106  163.4075 C.2     1  UNL1        0.3030
     23 O         144.1002  145.1205  162.9420 O.2     1  UNL1       -0.2649
     24 C         140.3612  139.5681  165.7170 C.2     1  UNL1        0.2671
     25 O         141.6171  138.7667  165.8918 O.2     1  UNL1       -0.2684
     26 N         139.6494  140.1180  166.9173 N.am    1  UNL1       -0.2956
     27 H         138.8251  140.6440  166.8026 H       1  UNL1        0.1501
     28 C         140.1934  139.8666  168.2924 C.3     1  UNL1        0.1166
     29 C         141.0482  140.9018  168.9616 C.ar    1  UNL1       -0.0024
     30 C         140.4731  142.2456  169.2985 C.ar    1  UNL1       -0.0003
     31 C         141.3280  143.2808  169.9677 C.ar    1  UNL1        0.0294
     32 C         142.7578  142.9720  170.3000 C.ar    1  UNL1        0.1401
     33 F         143.6125  144.0072  170.9691 F       1  UNL1       -0.2042
     34 C         143.3328  141.6282  169.9630 C.ar    1  UNL1        0.0294
     35 C         142.4779  140.5931  169.2938 C.ar    1  UNL1       -0.0003
@<TRIPOS>BOND
     1    19    20    1
     2    20    21    1
     3    20    22   am
     4    22    23    2
     5    22    15    1
     6    15    16    2
     7    15    17   am
     8    17    18    1
     9     1    17    1
    10     1     2    1
    11     2     3    1
    12     3     4    1
    13     4     5    1
    14     5     6    1
    15     6     7   ar
    16     7     8   ar
    17     8     9   ar
    18     9    24    1
    19    24    25    2
    20    24    26   am
    21    26    28    1
    22    28    29    1
    23    29    30   ar
    24    30    31   ar
    25    31    32   ar
    26    32    33    1
    27    32    34   ar
    28    34    35   ar
    29     9    10   ar
    30    10    11    1
    31    10    12   ar
    32    12    13    2
    33     7     1    1
    34    35    29   ar
    35    12     6   ar
    36    26    27    1
    37    11    14    1
@<TRIPOS>MOLECULE
*****
 35 37 0 0 0
SMALL
GASTEIGER

@<TRIPOS>ATOM
      1 C         140.5743  144.7889  158.7295 C.3     1  UNL1        0.1326
      2 C         141.1158  145.9173  157.9027 C.3     1  UNL1        0.0276
      3 C         140.8275  146.2477  156.4683 C.3     1  UNL1        0.0042
      4 C         139.9266  145.5315  155.5063 C.3     1  UNL1        0.0247
      5 C         139.0914  144.3079  155.7412 C.3     1  UNL1        0.1103
      6 N         138.9509  143.4983  156.9962 N.ar    1  UNL1       -0.2802
      7 C         139.6108  143.7123  158.3260 C.ar    1  UNL1        0.1410
      8 N         139.3294  142.7748  159.4626 N.ar    1  UNL1       -0.2228
      9 C         138.3879  141.6231  159.2692 C.ar    1  UNL1        0.1740
     10 C         137.7280  141.4090  157.9393 C.ar    1  UNL1        0.2130
     11 O         136.7866  140.2574  157.7458 O.3     1  UNL1       -0.5006
     12 C         138.0095  142.3466  156.8027 C.ar    1  UNL1        0.2973
     13 O         137.3495  142.1325  155.4728 O.2     1  UNL1       -0.2636
     14 H         136.6107  139.6717  158.4558 H       1  UNL1        0.2924
     15 C         142.2533  143.8893  160.4963 C.2     1  UNL1        0.3032
     16 O         142.9598  143.1090  159.4276 O.2     1  UNL1       -0.2649
     17 N         141.0606  144.7292  160.1473 N.am    1  UNL1       -0.2654
     18 C         140.3541  145.5094  161.2160 C.3     1  UNL1        0.1157
     19 C         142.6630  142.7486  164.2754 C.3     1  UNL1        0.1154
     20 N         142.1767  142.8083  162.8576 N.am    1  UNL1       -0.2688
     21 C         141.1276  141.8468  162.3835 C.3     1  UNL1        0.1154
     22 C         142.7396  143.8296  161.9141 C.2     1  UNL1        0.3030
     23 O         143.7887  144.7911  162.3882 O.2     1  UNL1       -0.2649
     24 C         138.1064  140.6855  160.4057 C.2     1  UNL1        0.2671
     25 O         137.4473  141.1954  161.6529 O.2     1  UNL1       -0.2684
     26 N         138.4840  139.2381  160.2950 N.am    1  UNL1       -0.2956
     27 H         138.9166  138.9034  159.4764 H       1  UNL1        0.1501
     28 C         138.2024  138.3005  161.4316 C.3     1  UNL1        0.1166
     29 C         139.2495  138.0533  162.4769 C.ar    1  UNL1       -0.0024
     30 C         140.6961  137.9802  162.0868 C.ar    1  UNL1       -0.0003
     31 C         141.7431  137.7330  163.1322 C.ar    1  UNL1        0.0294
     32 C         141.3435  137.5590  164.5675 C.ar    1  UNL1        0.1401
     33 F         142.3906  137.3118  165.6127 F       1  UNL1       -0.2042
     34 C         139.8969  137.6321  164.9575 C.ar    1  UNL1        0.0294
     35 C         138.8499  137.8793  163.9121 C.ar    1  UNL1       -0.0003
@<TRIPOS>BOND
     1    19    20    1
     2    20    21    1
     3    20    22   am
     4    22    23    2
     5    22    15    1
     6    15    16    2
     7    15    17   am
     8    17    18    1
     9     1    17    1
    10     1     2    1
    11     2     3    1
    12     3     4    1
    13     4     5    1
    14     5     6    1
    15     6     7   ar
    16     7     8   ar
    17     8     9   ar
    18     9    24    1
    19    24    25    2
    20    24    26   am
    21    26    28    1
    22    28    29    1
    23    29    30   ar
    24    30    31   ar
    25    31    32   ar
    26    32    33    1
    27    32    34   ar
    28    34    35   ar
    29     9    10   ar
    30    10    11    1
    31    10    12   ar
    32    12    13    2
    33     7     1    1
    34    35    29   ar
    35    12     6   ar
    36    26    27    1
    37    11    14    1
@<TRIPOS>MOLECULE
*****
 35 37 0 0 0
SMALL
GASTEIGER

@<TRIPOS>ATOM
      1 C         140.5425  143.0076  159.2957 C.3     1  UNL1        0.1326
      2 C         140.2444  143.8554  158.0946 C.3     1  UNL1        0.0276
      3 C         140.9322  143.8636  156.7617 C.3     1  UNL1        0.0042
      4 C         142.0879  143.0260  156.3004 C.3     1  UNL1        0.0247
      5 C         142.8413  141.9734  157.0583 C.3     1  UNL1        0.1103
      6 N         142.6251  141.4984  158.4646 N.ar    1  UNL1       -0.2802
      7 C         141.6021  141.9586  159.4603 C.ar    1  UNL1        0.1410
      8 N         141.5575  141.3447  160.8281 N.ar    1  UNL1       -0.2228
      9 C         142.5361  140.2705  161.2003 C.ar    1  UNL1        0.1740
     10 C         143.5592  139.8102  160.2046 C.ar    1  UNL1        0.2130
     11 O         144.5377  138.7360  160.5767 O.3     1  UNL1       -0.5006
     12 C         143.6037  140.4242  158.8367 C.ar    1  UNL1        0.2973
     13 O         144.6268  139.9639  157.8409 O.2     1  UNL1       -0.2636
     14 H         144.5100  138.3525  161.4311 H       1  UNL1        0.2924
     15 C         139.9737  144.3571  161.4417 C.2     1  UNL1        0.3032
     16 O         141.1597  145.2429  161.1991 O.2     1  UNL1       -0.2649
     17 N         139.6651  143.2395  160.4900 N.am    1  UNL1       -0.2654
     18 C         138.4792  142.3538  160.7327 C.3     1  UNL1        0.1157
     19 C         138.7656  144.6208  165.2128 C.3     1  UNL1        0.1154
     20 N         139.6430  144.3889  164.0185 N.am    1  UNL1       -0.2688
     21 C         141.0671  143.9571  164.2066 C.3     1  UNL1        0.1154
     22 C         139.0963  144.5889  162.6360 C.2     1  UNL1        0.3030
     23 O         137.6722  145.0208  162.4479 O.2     1  UNL1       -0.2649
     24 C         142.4916  139.6566  162.5682 C.2     1  UNL1        0.2671
     25 O         142.8483  138.2114  162.7535 O.2     1  UNL1       -0.2684
     26 N         142.0906  140.4876  163.7507 N.am    1  UNL1       -0.2956
     27 H         141.8566  141.4362  163.6290 H       1  UNL1        0.1501
     28 C         142.0462  139.8736  165.1185 C.3     1  UNL1        0.1166
     29 C         140.7355  139.4348  165.7014 C.ar    1  UNL1       -0.0024
     30 C         140.2459  140.0379  166.9846 C.ar    1  UNL1       -0.0003
     31 C         138.9352  139.5991  167.5673 C.ar    1  UNL1        0.0294
     32 C         138.1143  138.5571  166.8670 C.ar    1  UNL1        0.1401
     33 F         136.8037  138.1183  167.4498 F       1  UNL1       -0.2042
     34 C         138.6040  137.9540  165.5838 C.ar    1  UNL1        0.0294
     35 C         139.9147  138.3929  165.0010 C.ar    1  UNL1       -0.0003
@<TRIPOS>BOND
     1    19    20    1
     2    20    21    1
     3    20    22   am
     4    22    23    2
     5    22    15    1
     6    15    16    2
     7    15    17   am
     8    17    18    1
     9     1    17    1
    10     1     2    1
    11     2     3    1
    12     3     4    1
    13     4     5    1
    14     5     6    1
    15     6     7   ar
    16     7     8   ar
    17     8     9   ar
    18     9    24    1
    19    24    25    2
    20    24    26   am
    21    26    28    1
    22    28    29    1
    23    29    30   ar
    24    30    31   ar
    25    31    32   ar
    26    32    33    1
    27    32    34   ar
    28    34    35   ar
    29     9    10   ar
    30    10    11    1
    31    10    12   ar
    32    12    13    2
    33     7     1    1
    34    35    29   ar
    35    12     6   ar
    36    26    27    1
    37    11    14    1
@<TRIPOS>MOLECULE
*****
 35 37 0 0 0
SMALL
GASTEIGER

@<TRIPOS>ATOM
      1 C         140.3953  144.5519  158.8362 C.3     1  UNL1        0.1326
      2 C         140.9837  145.7947  158.2366 C.3     1  UNL1        0.0276
      3 C         140.8304  146.3228  156.8412 C.3     1  UNL1        0.0042
      4 C         140.0508  145.7389  155.7005 C.3     1  UNL1        0.0247
      5 C         139.2319  144.4824  155.6736 C.3     1  UNL1        0.1103
      6 N         138.9905  143.4996  156.7808 N.ar    1  UNL1       -0.2802
      7 C         139.5082  143.5305  158.1882 C.ar    1  UNL1        0.1410
      8 N         139.1420  142.4360  159.1462 N.ar    1  UNL1       -0.2228
      9 C         138.2581  141.3104  158.6968 C.ar    1  UNL1        0.1740
     10 C         137.7404  141.2795  157.2894 C.ar    1  UNL1        0.2130
     11 O         136.8565  140.1541  156.8399 O.3     1  UNL1       -0.5006
     12 C         138.1065  142.3741  156.3313 C.ar    1  UNL1        0.2973
     13 O         137.5888  142.3432  154.9238 O.2     1  UNL1       -0.2636
     14 H         136.6277  139.4703  157.4383 H       1  UNL1        0.2924
     15 C         140.1321  145.1443  161.3521 C.2     1  UNL1        0.3032
     16 O         139.1806  146.2469  160.9929 O.2     1  UNL1       -0.2649
     17 N         140.7395  144.2968  160.2737 N.am    1  UNL1       -0.2654
     18 C         141.6909  143.1943  160.6329 C.3     1  UNL1        0.1157
     19 C         139.8433  143.9258  165.1180 C.3     1  UNL1        0.1154
     20 N         139.4991  144.1809  163.6805 N.am    1  UNL1       -0.2688
     21 C         138.1779  143.7277  163.1338 C.3     1  UNL1        0.1154
     22 C         140.4763  144.8892  162.7896 C.2     1  UNL1        0.3030
     23 O         141.7975  145.3424  163.3363 O.2     1  UNL1       -0.2649
     24 C         137.8919  140.2159  159.6548 C.2     1  UNL1        0.2671
     25 O         136.4550  139.8229  159.8308 O.2     1  UNL1       -0.2684
     26 N         138.9625  139.5143  160.4369 N.am    1  UNL1       -0.2956
     27 H         139.9055  139.7723  160.3214 H       1  UNL1        0.1501
     28 C         138.5962  138.4197  161.3949 C.3     1  UNL1        0.1166
     29 C         138.5712  138.6913  162.8699 C.ar    1  UNL1       -0.0024
     30 C         138.1737  140.0461  163.3764 C.ar    1  UNL1       -0.0003
     31 C         138.1488  140.3176  164.8515 C.ar    1  UNL1        0.0294
     32 C         138.5213  139.2343  165.8199 C.ar    1  UNL1        0.1401
     33 F         138.4963  139.5060  167.2949 F       1  UNL1       -0.2042
     34 C         138.9187  137.8796  165.3133 C.ar    1  UNL1        0.0294
     35 C         138.9437  137.6081  163.8383 C.ar    1  UNL1       -0.0003
@<TRIPOS>BOND
     1    19    20    1
     2    20    21    1
     3    20    22   am
     4    22    23    2
     5    22    15    1
     6    15    16    2
     7    15    17   am
     8    17    18    1
     9     1    17    1
    10     1     2    1
    11     2     3    1
    12     3     4    1
    13     4     5    1
    14     5     6    1
    15     6     7   ar
    16     7     8   ar
    17     8     9   ar
    18     9    24    1
    19    24    25    2
    20    24    26   am
    21    26    28    1
    22    28    29    1
    23    29    30   ar
    24    30    31   ar
    25    31    32   ar
    26    32    33    1
    27    32    34   ar
    28    34    35   ar
    29     9    10   ar
    30    10    11    1
    31    10    12   ar
    32    12    13    2
    33     7     1    1
    34    35    29   ar
    35    12     6   ar
    36    26    27    1
    37    11    14    1
@<TRIPOS>MOLECULE
*****
 35 37 0 0 0
SMALL
GASTEIGER

@<TRIPOS>ATOM
      1 C         139.6670  140.5681  161.4221 C.3     1  UNL1        0.1326
      2 C         138.9324  140.2825  160.1458 C.3     1  UNL1        0.0276
      3 C         139.3456  139.3984  159.0068 C.3     1  UNL1        0.0042
      4 C         140.5953  138.5814  158.8625 C.3     1  UNL1        0.0247
      5 C         141.7405  138.4468  159.8219 C.3     1  UNL1        0.1103
      6 N         141.9188  139.0960  161.1623 N.ar    1  UNL1       -0.2802
      7 C         140.9961  140.0400  161.8745 C.ar    1  UNL1        0.1410
      8 N         141.3695  140.5791  163.2235 N.ar    1  UNL1       -0.2228
      9 C         142.6659  140.1741  163.8604 C.ar    1  UNL1        0.1740
     10 C         143.5887  139.2300  163.1482 C.ar    1  UNL1        0.2130
     11 O         144.8850  138.8250  163.7850 O.3     1  UNL1       -0.5006
     12 C         143.2152  138.6910  161.7992 C.ar    1  UNL1        0.2973
     13 O         144.1380  137.7469  161.0870 O.2     1  UNL1       -0.2636
     14 H         145.1183  139.1617  164.6277 H       1  UNL1        0.2924
     15 C         139.3600  142.9570  162.3962 C.2     1  UNL1        0.3032
     16 O         140.4233  143.4708  161.4713 O.2     1  UNL1       -0.2649
     17 N         138.9818  141.5057  162.3716 N.am    1  UNL1       -0.2654
     18 C         137.9185  140.9920  163.2965 C.3     1  UNL1        0.1157
     19 C         138.5545  145.0559  165.6667 C.3     1  UNL1        0.1154
     20 N         139.2396  144.1183  164.7172 N.am    1  UNL1       -0.2688
     21 C         140.4895  143.4044  165.1392 C.3     1  UNL1        0.1154
     22 C         138.6748  143.8946  163.3457 C.2     1  UNL1        0.3030
     23 O         137.4250  144.6085  162.9237 O.2     1  UNL1       -0.2649
     24 C         143.0394  140.7131  165.2095 C.2     1  UNL1        0.2671
     25 O         143.8712  141.9568  165.3161 O.2     1  UNL1       -0.2684
     26 N         142.5813  140.0085  166.4518 N.am    1  UNL1       -0.2956
     27 H         142.0353  139.1922  166.3818 H       1  UNL1        0.1501
     28 C         142.9548  140.5476  167.8009 C.3     1  UNL1        0.1166
     29 C         141.9248  141.2400  168.6433 C.ar    1  UNL1       -0.0024
     30 C         140.6824  140.5100  169.0597 C.ar    1  UNL1       -0.0003
     31 C         139.6524  141.2025  169.9022 C.ar    1  UNL1        0.0294
     32 C         139.8649  142.6250  170.3281 C.ar    1  UNL1        0.1401
     33 F         138.8349  143.3174  171.1705 F       1  UNL1       -0.2042
     34 C         141.1074  143.3550  169.9116 C.ar    1  UNL1        0.0294
     35 C         142.1373  142.6625  169.0692 C.ar    1  UNL1       -0.0003
@<TRIPOS>BOND
     1    19    20    1
     2    20    21    1
     3    20    22   am
     4    22    23    2
     5    22    15    1
     6    15    16    2
     7    15    17   am
     8    17    18    1
     9     1    17    1
    10     1     2    1
    11     2     3    1
    12     3     4    1
    13     4     5    1
    14     5     6    1
    15     6     7   ar
    16     7     8   ar
    17     8     9   ar
    18     9    24    1
    19    24    25    2
    20    24    26   am
    21    26    28    1
    22    28    29    1
    23    29    30   ar
    24    30    31   ar
    25    31    32   ar
    26    32    33    1
    27    32    34   ar
    28    34    35   ar
    29     9    10   ar
    30    10    11    1
    31    10    12   ar
    32    12    13    2
    33     7     1    1
    34    35    29   ar
    35    12     6   ar
    36    26    27    1
    37    11    14    1
@<TRIPOS>MOLECULE
*****
 35 37 0 0 0
SMALL
GASTEIGER

@<TRIPOS>ATOM
      1 C         140.5899  143.8337  160.1816 C.3     1  UNL1        0.1326
      2 C         140.7948  144.7125  158.9833 C.3     1  UNL1        0.0276
      3 C         140.1625  144.6073  157.6273 C.3     1  UNL1        0.0042
      4 C         139.1690  143.5973  157.1344 C.3     1  UNL1        0.0247
      5 C         138.5625  142.4431  157.8759 C.3     1  UNL1        0.1103
      6 N         138.7997  142.0138  159.2935 N.ar    1  UNL1       -0.2802
      7 C         139.7019  142.6326  160.3195 C.ar    1  UNL1        0.1410
      8 N         139.7926  142.0391  161.6941 N.ar    1  UNL1       -0.2228
      9 C         138.9811  140.8267  162.0426 C.ar    1  UNL1        0.1740
     10 C         138.0788  140.2078  161.0165 C.ar    1  UNL1        0.2130
     11 O         137.2672  138.9954  161.3649 O.3     1  UNL1       -0.5006
     12 C         137.9881  140.8014  159.6419 C.ar    1  UNL1        0.2973
     13 O         137.0858  140.1825  158.6158 O.2     1  UNL1       -0.2636
     14 H         137.3238  138.6246  162.2235 H       1  UNL1        0.2924
     15 C         142.7501  143.6387  161.6117 C.2     1  UNL1        0.3032
     16 O         143.3364  142.7009  160.5982 O.2     1  UNL1       -0.2649
     17 N         141.3769  144.2050  161.4033 N.am    1  UNL1       -0.2654
     18 C         140.7907  145.1427  162.4168 C.3     1  UNL1        0.1157
     19 C         144.2950  143.4942  165.2644 C.3     1  UNL1        0.1154
     20 N         143.5080  143.1229  164.0427 N.am    1  UNL1       -0.2688
     21 C         142.6918  141.8644  164.0301 C.3     1  UNL1        0.1154
     22 C         143.5371  144.0100  162.8334 C.2     1  UNL1        0.3030
     23 O         144.3533  145.2684  162.8460 O.2     1  UNL1       -0.2649
     24 C         139.0717  140.2331  163.4172 C.2     1  UNL1        0.2671
     25 O         139.1073  138.7435  163.5900 O.2     1  UNL1       -0.2684
     26 N         139.1268  141.1290  164.6189 N.am    1  UNL1       -0.2956
     27 H         139.1034  142.1067  164.5055 H       1  UNL1        0.1501
     28 C         139.2175  140.5354  165.9935 C.3     1  UNL1        0.1166
     29 C         140.3877  140.8588  166.8744 C.ar    1  UNL1       -0.0024
     30 C         141.4481  139.8270  167.1217 C.ar    1  UNL1       -0.0003
     31 C         142.6183  140.1505  168.0026 C.ar    1  UNL1        0.0294
     32 C         142.7281  141.5058  168.6362 C.ar    1  UNL1        0.1401
     33 F         143.8983  141.8292  169.5170 F       1  UNL1       -0.2042
     34 C         141.6677  142.5375  168.3888 C.ar    1  UNL1        0.0294
     35 C         140.4975  142.2140  167.5079 C.ar    1  UNL1       -0.0003
@<TRIPOS>BOND
     1    19    20    1
     2    20    21    1
     3    20    22   am
     4    22    23    2
     5    22    15    1
     6    15    16    2
     7    15    17   am
     8    17    18    1
     9     1    17    1
    10     1     2    1
    11     2     3    1
    12     3     4    1
    13     4     5    1
    14     5     6    1
    15     6     7   ar
    16     7     8   ar
    17     8     9   ar
    18     9    24    1
    19    24    25    2
    20    24    26   am
    21    26    28    1
    22    28    29    1
    23    29    30   ar
    24    30    31   ar
    25    31    32   ar
    26    32    33    1
    27    32    34   ar
    28    34    35   ar
    29     9    10   ar
    30    10    11    1
    31    10    12   ar
    32    12    13    2
    33     7     1    1
    34    35    29   ar
    35    12     6   ar
    36    26    27    1
    37    11    14    1
@<TRIPOS>MOLECULE
*****
 35 37 0 0 0
SMALL
GASTEIGER

@<TRIPOS>ATOM
      1 C         142.3752  139.7516  160.9473 C.3     1  UNL1        0.1326
      2 C         143.0522  139.0799  159.7895 C.3     1  UNL1        0.0276
      3 C         142.4321  138.4878  158.5588 C.3     1  UNL1        0.0042
      4 C         140.9818  138.4211  158.1817 C.3     1  UNL1        0.0247
      5 C         139.7934  138.9300  158.9424 C.3     1  UNL1        0.1103
      6 N         139.7618  139.6314  160.2680 N.ar    1  UNL1       -0.2802
      7 C         140.9107  139.9970  161.1602 C.ar    1  UNL1        0.1410
      8 N         140.6567  140.7042  162.4584 N.ar    1  UNL1       -0.2228
      9 C         139.2536  141.0458  162.8644 C.ar    1  UNL1        0.1740
     10 C         138.1046  140.6801  161.9721 C.ar    1  UNL1        0.2130
     11 O         136.7016  141.0216  162.3780 O.3     1  UNL1       -0.5006
     12 C         138.3587  139.9729  160.6739 C.ar    1  UNL1        0.2973
     13 O         137.2097  139.6072  159.7817 O.2     1  UNL1       -0.2636
     14 H         136.5428  141.4633  163.1890 H       1  UNL1        0.2924
     15 C         143.7641  141.6634  162.0271 C.2     1  UNL1        0.3032
     16 O         143.3384  142.5928  160.9293 O.2     1  UNL1       -0.2649
     17 N         143.2824  140.2429  162.0361 N.am    1  UNL1       -0.2654
     18 C         143.7081  139.3136  163.1339 C.3     1  UNL1        0.1157
     19 C         145.0398  143.5357  165.2855 C.3     1  UNL1        0.1154
     20 N         144.1326  143.0445  164.1967 N.am    1  UNL1       -0.2688
     21 C         142.6865  143.4430  164.1886 C.3     1  UNL1        0.1154
     22 C         144.6714  142.1546  163.1160 C.2     1  UNL1        0.3030
     23 O         146.1174  141.7561  163.1241 O.2     1  UNL1       -0.2649
     24 C         138.9995  141.7529  164.1626 C.2     1  UNL1        0.2671
     25 O         137.8666  142.7296  164.2753 O.2     1  UNL1       -0.2684
     26 N         139.8782  141.4836  165.3479 N.am    1  UNL1       -0.2956
     27 H         140.6218  140.8426  165.2739 H       1  UNL1        0.1501
     28 C         139.6240  142.1908  166.6461 C.3     1  UNL1        0.1166
     29 C         140.7413  142.3781  167.6294 C.ar    1  UNL1       -0.0024
     30 C         140.4792  143.0540  168.9426 C.ar    1  UNL1       -0.0003
     31 C         141.5964  143.2413  169.9258 C.ar    1  UNL1        0.0294
     32 C         142.9757  142.7526  169.5959 C.ar    1  UNL1        0.1401
     33 F         144.0929  142.9398  170.5791 F       1  UNL1       -0.2042
     34 C         143.2377  142.0767  168.2826 C.ar    1  UNL1        0.0294
     35 C         142.1205  141.8894  167.2994 C.ar    1  UNL1       -0.0003
@<TRIPOS>BOND
     1    19    20    1
     2    20    21    1
     3    20    22   am
     4    22    23    2
     5    22    15    1
     6    15    16    2
     7    15    17   am
     8    17    18    1
     9     1    17    1
    10     1     2    1
    11     2     3    1
    12     3     4    1
    13     4     5    1
    14     5     6    1
    15     6     7   ar
    16     7     8   ar
    17     8     9   ar
    18     9    24    1
    19    24    25    2
    20    24    26   am
    21    26    28    1
    22    28    29    1
    23    29    30   ar
    24    30    31   ar
    25    31    32   ar
    26    32    33    1
    27    32    34   ar
    28    34    35   ar
    29     9    10   ar
    30    10    11    1
    31    10    12   ar
    32    12    13    2
    33     7     1    1
    34    35    29   ar
    35    12     6   ar
    36    26    27    1
    37    11    14    1
@<TRIPOS>MOLECULE
*****
 35 37 0 0 0
SMALL
GASTEIGER

@<TRIPOS>ATOM
      1 C         142.3454  140.6333  160.3577 C.3     1  UNL1        0.1326
      2 C         143.0091  139.9593  159.1934 C.3     1  UNL1        0.0276
      3 C         143.4580  140.5621  157.8954 C.3     1  UNL1        0.0042
      4 C         143.3541  141.9878  157.4408 C.3     1  UNL1        0.0247
      5 C         142.7756  143.1628  158.1720 C.3     1  UNL1        0.1103
      6 N         142.1581  143.2022  159.5385 N.ar    1  UNL1       -0.2802
      7 C         141.9667  142.0767  160.5111 C.ar    1  UNL1        0.1410
      8 N         141.3192  142.3350  161.8393 N.ar    1  UNL1       -0.2228
      9 C         140.8632  143.7191  162.1948 C.ar    1  UNL1        0.1740
     10 C         141.0547  144.8448  161.2221 C.ar    1  UNL1        0.2130
     11 O         140.5987  146.2289  161.5775 O.3     1  UNL1       -0.5006
     12 C         141.7022  144.5864  159.8939 C.ar    1  UNL1        0.2973
     13 O         141.8936  145.7121  158.9212 O.2     1  UNL1       -0.2636
     14 H         140.1943  146.3903  162.4072 H       1  UNL1        0.2924
     15 C         140.7049  139.0213  161.5660 C.2     1  UNL1        0.3032
     16 O         139.7212  139.1821  160.4450 O.2     1  UNL1       -0.2649
     17 N         142.0170  139.7468  161.5223 N.am    1  UNL1       -0.2654
     18 C         143.0006  139.5860  162.6432 C.3     1  UNL1        0.1157
     19 C         139.0682  137.7072  164.9342 C.3     1  UNL1        0.1154
     20 N         139.3966  138.5937  163.7696 N.am    1  UNL1       -0.2688
     21 C         138.7453  139.9390  163.6439 C.3     1  UNL1        0.1154
     22 C         140.3765  138.1348  162.7306 C.2     1  UNL1        0.3030
     23 O         141.0278  136.7895  162.8562 O.2     1  UNL1       -0.2649
     24 C         140.2158  143.9775  163.5230 C.2     1  UNL1        0.2671
     25 O         139.1556  145.0312  163.6480 O.2     1  UNL1       -0.2684
     26 N         140.6285  143.1823  164.7259 N.am    1  UNL1       -0.2956
     27 H         141.3243  142.4907  164.6438 H       1  UNL1        0.1501
     28 C         139.9810  143.4408  166.0541 C.3     1  UNL1        0.1166
     29 C         140.1375  142.4508  167.1701 C.ar    1  UNL1       -0.0024
     30 C         140.5759  142.9141  168.5277 C.ar    1  UNL1       -0.0003
     31 C         140.7324  141.9240  169.6437 C.ar    1  UNL1        0.0294
     32 C         140.4504  140.4707  169.4020 C.ar    1  UNL1        0.1401
     33 F         140.6069  139.4807  170.5179 F       1  UNL1       -0.2042
     34 C         140.0120  140.0074  168.0443 C.ar    1  UNL1        0.0294
     35 C         139.8555  140.9975  166.9284 C.ar    1  UNL1       -0.0003
@<TRIPOS>BOND
     1    19    20    1
     2    20    21    1
     3    20    22   am
     4    22    23    2
     5    22    15    1
     6    15    16    2
     7    15    17   am
     8    17    18    1
     9     1    17    1
    10     1     2    1
    11     2     3    1
    12     3     4    1
    13     4     5    1
    14     5     6    1
    15     6     7   ar
    16     7     8   ar
    17     8     9   ar
    18     9    24    1
    19    24    25    2
    20    24    26   am
    21    26    28    1
    22    28    29    1
    23    29    30   ar
    24    30    31   ar
    25    31    32   ar
    26    32    33    1
    27    32    34   ar
    28    34    35   ar
    29     9    10   ar
    30    10    11    1
    31    10    12   ar
    32    12    13    2
    33     7     1    1
    34    35    29   ar
    35    12     6   ar
    36    26    27    1
    37    11    14    1
