@<TRIPOS>MOLECULE
*****
 34 38 0 0 0
SMALL
GASTEIGER

@<TRIPOS>ATOM
      1 C         139.8739  139.9027  167.9122 C.2     1  UNL1        0.2508
      2 O         138.6345  139.5639  168.6864 O.2     1  UNL1       -0.2727
      3 N         140.9711  140.6930  168.5614 N.am    1  UNL1       -0.2730
      4 C         140.9708  141.2102  169.9694 C.3     1  UNL1        0.0759
      5 C         141.2526  141.8410  171.3008 C.3     1  UNL1        0.0215
      6 C         142.2608  141.9417  170.1948 C.3     1  UNL1        0.0220
      7 C         143.0584  141.8765  168.9261 C.3     1  UNL1        0.0309
      8 C         142.2613  141.1048  167.9166 C.3     1  UNL1        0.1521
      9 C         142.6808  140.7986  166.5093 C.2     1  UNL1        0.2452
     10 O         143.2971  139.4707  166.1825 O.2     1  UNL1       -0.2730
     11 N         142.4840  141.8204  165.4290 N.am    1  UNL1       -0.2680
     12 H         142.0795  142.6919  165.6435 H       1  UNL1        0.1563
     13 C         142.9034  141.5142  164.0217 C.ar    1  UNL1        0.1347
     14 C         144.2818  141.8772  163.5542 C.ar    1  UNL1        0.0345
     15 C         144.7012  141.5710  162.1469 C.ar    1  UNL1        0.0049
     16 C         143.7424  140.9019  161.2072 C.ar    1  UNL1        0.0261
     17 C         142.3641  140.5390  161.6748 C.ar    1  UNL1        0.1168
     18 BR        141.4052  139.8699  160.7351 Br      1  UNL1       -0.0280
     19 N         141.9446  140.8452  163.0820 N.ar    1  UNL1       -0.2238
     20 C         140.0159  139.4511  166.4888 C.3     1  UNL1        0.2120
     21 C         138.3840  142.0315  164.0923 C.ar    1  UNL1        0.1552
     22 N         139.0644  141.6920  165.3852 N.ar    1  UNL1       -0.1642
     23 N         139.3457  140.2186  165.3880 N.ar    1  UNL1       -0.2414
     24 C         138.8392  139.6475  164.0968 C.ar    1  UNL1        0.0800
     25 C         138.8425  138.2520  163.5468 C.ar    1  UNL1        0.0188
     26 C         138.2513  137.9769  162.1960 C.ar    1  UNL1        0.0015
     27 C         137.6569  139.0974  161.3951 C.ar    1  UNL1        0.0001
     28 C         137.6537  140.4929  161.9451 C.ar    1  UNL1        0.0032
     29 C         138.2448  140.7679  163.2959 C.ar    1  UNL1        0.0411
     30 N         137.7037  143.6956  162.2166 N.am    1  UNL1       -0.3240
     31 C         137.9236  143.3951  163.6697 C.2     1  UNL1        0.2623
     32 O         137.6830  144.4582  164.7001 O.2     1  UNL1       -0.2687
     33 H         137.4015  144.5906  161.9392 H       1  UNL1        0.1453
     34 H         137.8616  142.9979  161.5402 H       1  UNL1        0.1453
@<TRIPOS>BOND
     1    30    31   am
     2    31    32    2
     3    31    21    1
     4    21    22   ar
     5    22    23   ar
     6    23    20    1
     7    20     1    1
     8     1     2    2
     9     1     3   am
    10     3     4    1
    11     4     5    1
    12     6     5    1
    13     6     7    1
    14     7     8    1
    15     8     9    1
    16     9    10    2
    17     9    11   am
    18    11    13    1
    19    13    14   ar
    20    14    15   ar
    21    15    16   ar
    22    16    17   ar
    23    17    18    1
    24    17    19   ar
    25    23    24   ar
    26    24    25   ar
    27    25    26   ar
    28    26    27   ar
    29    27    28   ar
    30    28    29   ar
    31    29    21   ar
    32     8     3    1
    33    19    13   ar
    34    29    24   ar
    35     6     4    1
    36    30    33    1
    37    30    34    1
    38    11    12    1
@<TRIPOS>MOLECULE
*****
 34 38 0 0 0
SMALL
GASTEIGER

@<TRIPOS>ATOM
      1 C         143.7500  142.7010  165.7958 C.2     1  UNL1        0.2508
      2 O         144.5751  143.9399  165.9802 O.2     1  UNL1       -0.2727
      3 N         143.2815  141.9269  166.9922 N.am    1  UNL1       -0.2730
      4 C         143.5582  142.2678  168.4265 C.3     1  UNL1        0.0759
      5 C         143.6667  142.3508  169.9203 C.3     1  UNL1        0.0215
      6 C         142.9018  141.2276  169.2851 C.3     1  UNL1        0.0220
      7 C         142.2195  140.2439  168.3814 C.3     1  UNL1        0.0309
      8 C         142.4541  140.6760  166.9643 C.3     1  UNL1        0.1521
      9 C         141.9499  139.9796  165.7352 C.2     1  UNL1        0.2452
     10 O         142.8418  139.0295  164.9924 O.2     1  UNL1       -0.2730
     11 N         140.5538  140.2333  165.2489 N.am    1  UNL1       -0.2680
     12 H         139.9684  140.8569  165.7364 H       1  UNL1        0.1563
     13 C         140.0496  139.5369  164.0197 C.ar    1  UNL1        0.1347
     14 C         139.2435  138.2784  164.1482 C.ar    1  UNL1        0.0345
     15 C         138.7393  137.5820  162.9190 C.ar    1  UNL1        0.0049
     16 C         139.0412  138.1441  161.5614 C.ar    1  UNL1        0.0261
     17 C         139.8472  139.4026  161.4331 C.ar    1  UNL1        0.1168
     18 BR        140.1490  139.9648  160.0755 Br      1  UNL1       -0.0280
     19 N         140.3514  140.0990  162.6622 N.ar    1  UNL1       -0.2238
     20 C         143.3932  142.2360  164.4150 C.3     1  UNL1        0.2120
     21 C         141.1831  144.0424  161.7849 C.ar    1  UNL1        0.1552
     22 N         142.4342  143.3052  162.1606 N.ar    1  UNL1       -0.1642
     23 N         142.3548  142.9716  163.6208 N.ar    1  UNL1       -0.2414
     24 C         141.0546  143.5027  164.1476 C.ar    1  UNL1        0.0800
     25 C         140.4366  143.4691  165.5139 C.ar    1  UNL1        0.0188
     26 C         139.0944  144.0974  165.7455 C.ar    1  UNL1        0.0015
     27 C         138.3702  144.7593  164.6108 C.ar    1  UNL1        0.0001
     28 C         138.9883  144.7928  163.2445 C.ar    1  UNL1        0.0032
     29 C         140.3305  144.1645  163.0129 C.ar    1  UNL1        0.0411
     30 N         141.8032  145.4701  159.7045 N.am    1  UNL1       -0.3240
     31 C         140.8441  144.5658  160.4206 C.2     1  UNL1        0.2623
     32 O         139.5463  144.1849  159.7723 O.2     1  UNL1       -0.2687
     33 H         141.5807  145.8136  158.8091 H       1  UNL1        0.1453
     34 H         142.6550  145.7201  160.1300 H       1  UNL1        0.1453
@<TRIPOS>BOND
     1    30    31   am
     2    31    32    2
     3    31    21    1
     4    21    22   ar
     5    22    23   ar
     6    23    20    1
     7    20     1    1
     8     1     2    2
     9     1     3   am
    10     3     4    1
    11     4     5    1
    12     6     5    1
    13     6     7    1
    14     7     8    1
    15     8     9    1
    16     9    10    2
    17     9    11   am
    18    11    13    1
    19    13    14   ar
    20    14    15   ar
    21    15    16   ar
    22    16    17   ar
    23    17    18    1
    24    17    19   ar
    25    23    24   ar
    26    24    25   ar
    27    25    26   ar
    28    26    27   ar
    29    27    28   ar
    30    28    29   ar
    31    29    21   ar
    32     8     3    1
    33    19    13   ar
    34    29    24   ar
    35     6     4    1
    36    30    33    1
    37    30    34    1
    38    11    12    1
@<TRIPOS>MOLECULE
*****
 34 38 0 0 0
SMALL
GASTEIGER

@<TRIPOS>ATOM
      1 C         142.7838  141.8290  167.7052 C.2     1  UNL1        0.2508
      2 O         143.7468  142.7357  168.4128 O.2     1  UNL1       -0.2727
      3 N         141.5434  141.3591  168.4056 N.am    1  UNL1       -0.2730
      4 C         141.1346  141.7104  169.8054 C.3     1  UNL1        0.0759
      5 C         140.4776  141.8801  171.1432 C.3     1  UNL1        0.0215
      6 C         139.8325  141.0238  170.0941 C.3     1  UNL1        0.0220
      7 C         139.4367  140.2482  168.8727 C.3     1  UNL1        0.0309
      8 C         140.4941  140.4555  167.8292 C.3     1  UNL1        0.1521
      9 C         140.5009  139.8630  166.4511 C.2     1  UNL1        0.2452
     10 O         141.4249  138.7264  166.1280 O.2     1  UNL1       -0.2730
     11 N         139.5838  140.4072  165.3963 N.am    1  UNL1       -0.2680
     12 H         138.9774  141.1532  165.6084 H       1  UNL1        0.1563
     13 C         139.5906  139.8148  164.0182 C.ar    1  UNL1        0.1347
     14 C         138.6277  138.7192  163.6681 C.ar    1  UNL1        0.0345
     15 C         138.6345  138.1268  162.2900 C.ar    1  UNL1        0.0049
     16 C         139.6043  138.6299  161.2622 C.ar    1  UNL1        0.0261
     17 C         140.5672  139.7254  161.6124 C.ar    1  UNL1        0.1168
     18 BR        141.5370  140.2285  160.5845 Br      1  UNL1       -0.0280
     19 N         140.5604  140.3178  162.9904 N.ar    1  UNL1       -0.2238
     20 C         143.0612  141.3923  166.2972 C.3     1  UNL1        0.2120
     21 C         141.3899  143.8262  163.7777 C.ar    1  UNL1        0.1552
     22 N         141.4371  143.1593  165.1205 N.ar    1  UNL1       -0.1642
     23 N         142.6326  142.2538  165.1465 N.ar    1  UNL1       -0.2414
     24 C         143.3243  142.3610  163.8198 C.ar    1  UNL1        0.0800
     25 C         144.5542  141.6992  163.2728 C.ar    1  UNL1        0.0188
     26 C         145.0161  142.0093  161.8798 C.ar    1  UNL1        0.0015
     27 C         144.2480  142.9810  161.0338 C.ar    1  UNL1        0.0001
     28 C         143.0181  143.6428  161.5808 C.ar    1  UNL1        0.0032
     29 C         142.5562  143.3328  162.9738 C.ar    1  UNL1        0.0411
     30 N         140.7740  146.1881  162.8876 N.am    1  UNL1       -0.3240
     31 C         140.3576  144.8132  163.3192 C.2     1  UNL1        0.2623
     32 O         138.9089  144.4254  163.2923 O.2     1  UNL1       -0.2687
     33 H         140.0965  146.8359  162.5867 H       1  UNL1        0.1453
     34 H         141.7249  146.4427  162.9052 H       1  UNL1        0.1453
@<TRIPOS>BOND
     1    30    31   am
     2    31    32    2
     3    31    21    1
     4    21    22   ar
     5    22    23   ar
     6    23    20    1
     7    20     1    1
     8     1     2    2
     9     1     3   am
    10     3     4    1
    11     4     5    1
    12     6     5    1
    13     6     7    1
    14     7     8    1
    15     8     9    1
    16     9    10    2
    17     9    11   am
    18    11    13    1
    19    13    14   ar
    20    14    15   ar
    21    15    16   ar
    22    16    17   ar
    23    17    18    1
    24    17    19   ar
    25    23    24   ar
    26    24    25   ar
    27    25    26   ar
    28    26    27   ar
    29    27    28   ar
    30    28    29   ar
    31    29    21   ar
    32     8     3    1
    33    19    13   ar
    34    29    24   ar
    35     6     4    1
    36    30    33    1
    37    30    34    1
    38    11    12    1
@<TRIPOS>MOLECULE
*****
 34 38 0 0 0
SMALL
GASTEIGER

@<TRIPOS>ATOM
      1 C         140.1389  140.0963  160.3624 C.2     1  UNL1        0.2508
      2 O         139.4164  140.8040  159.2547 O.2     1  UNL1       -0.2727
      3 N         141.2150  139.1019  160.0408 N.am    1  UNL1       -0.2730
      4 C         141.6751  138.7142  158.6667 C.3     1  UNL1        0.0759
      5 C         142.3321  138.1380  157.4477 C.3     1  UNL1        0.0215
      6 C         142.7643  137.6934  158.8135 C.3     1  UNL1        0.0220
      7 C         142.9774  137.4503  160.2783 C.3     1  UNL1        0.0309
      8 C         142.0199  138.3208  161.0368 C.3     1  UNL1        0.1521
      9 C         141.8900  138.3968  162.5292 C.2     1  UNL1        0.2452
     10 O         140.9136  137.5097  163.2433 O.2     1  UNL1       -0.2730
     11 N         142.7365  139.3599  163.3076 N.am    1  UNL1       -0.2680
     12 H         143.3773  139.9421  162.8390 H       1  UNL1        0.1563
     13 C         142.6066  139.4359  164.8000 C.ar    1  UNL1        0.1347
     14 C         143.4125  138.5179  165.6707 C.ar    1  UNL1        0.0345
     15 C         143.2827  138.5940  167.1631 C.ar    1  UNL1        0.0049
     16 C         142.3469  139.5879  167.7849 C.ar    1  UNL1        0.0261
     17 C         141.5411  140.5058  166.9142 C.ar    1  UNL1        0.1168
     18 BR        140.6053  141.4997  167.5360 Br      1  UNL1       -0.0280
     19 N         141.6709  140.4298  165.4218 N.ar    1  UNL1       -0.2238
     20 C         139.7854  140.3829  161.7918 C.3     1  UNL1        0.2120
     21 C         141.8664  143.3307  163.2218 C.ar    1  UNL1        0.1552
     22 N         141.7561  142.0864  162.3915 N.ar    1  UNL1       -0.1642
     23 N         140.3396  141.5996  162.4719 N.ar    1  UNL1       -0.2414
     24 C         139.5744  142.5431  163.3519 C.ar    1  UNL1        0.0800
     25 C         138.1403  142.5662  163.7910 C.ar    1  UNL1        0.0188
     26 C         137.6499  143.6592  164.6936 C.ar    1  UNL1        0.0015
     27 C         138.5935  144.7291  165.1571 C.ar    1  UNL1        0.0001
     28 C         140.0276  144.7060  164.7179 C.ar    1  UNL1        0.0032
     29 C         140.5180  143.6130  163.8153 C.ar    1  UNL1        0.0411
     30 N         143.4860  145.1967  162.4185 N.am    1  UNL1       -0.3240
     31 C         143.1072  144.1492  163.4232 C.2     1  UNL1        0.2623
     32 O         143.9692  143.9202  164.6292 O.2     1  UNL1       -0.2687
     33 H         144.3004  145.7339  162.5507 H       1  UNL1        0.1453
     34 H         142.9202  145.3470  161.6270 H       1  UNL1        0.1453
@<TRIPOS>BOND
     1    30    31   am
     2    31    32    2
     3    31    21    1
     4    21    22   ar
     5    22    23   ar
     6    23    20    1
     7    20     1    1
     8     1     2    2
     9     1     3   am
    10     3     4    1
    11     4     5    1
    12     6     5    1
    13     6     7    1
    14     7     8    1
    15     8     9    1
    16     9    10    2
    17     9    11   am
    18    11    13    1
    19    13    14   ar
    20    14    15   ar
    21    15    16   ar
    22    16    17   ar
    23    17    18    1
    24    17    19   ar
    25    23    24   ar
    26    24    25   ar
    27    25    26   ar
    28    26    27   ar
    29    27    28   ar
    30    28    29   ar
    31    29    21   ar
    32     8     3    1
    33    19    13   ar
    34    29    24   ar
    35     6     4    1
    36    30    33    1
    37    30    34    1
    38    11    12    1
@<TRIPOS>MOLECULE
*****
 34 38 0 0 0
SMALL
GASTEIGER

@<TRIPOS>ATOM
      1 C         143.7629  142.7509  165.8203 C.2     1  UNL1        0.2508
      2 O         144.6039  143.9792  166.0049 O.2     1  UNL1       -0.2727
      3 N         143.3004  141.9720  167.0159 N.am    1  UNL1       -0.2730
      4 C         143.5982  142.2979  168.4495 C.3     1  UNL1        0.0759
      5 C         143.7255  142.3672  169.9424 C.3     1  UNL1        0.0215
      6 C         142.9407  141.2578  169.3074 C.3     1  UNL1        0.0220
      7 C         142.2367  140.2892  168.4040 C.3     1  UNL1        0.0309
      8 C         142.4590  140.7306  166.9877 C.3     1  UNL1        0.1521
      9 C         141.9323  140.0501  165.7591 C.2     1  UNL1        0.2452
     10 O         142.8177  139.1273  164.9750 O.2     1  UNL1       -0.2730
     11 N         140.5204  140.2922  165.3146 N.am    1  UNL1       -0.2680
     12 H         139.9393  140.8979  165.8292 H       1  UNL1        0.1563
     13 C         139.9937  139.6117  164.0859 C.ar    1  UNL1        0.1347
     14 C         139.2465  138.3167  164.2078 C.ar    1  UNL1        0.0345
     15 C         138.7199  137.6362  162.9792 C.ar    1  UNL1        0.0049
     16 C         138.9404  138.2507  161.6287 C.ar    1  UNL1        0.0261
     17 C         139.6876  139.5456  161.5068 C.ar    1  UNL1        0.1168
     18 BR        139.9081  140.1601  160.1563 Br      1  UNL1       -0.0280
     19 N         140.2142  140.2261  162.7354 N.ar    1  UNL1       -0.2238
     20 C         143.3845  142.3015  164.4401 C.3     1  UNL1        0.2120
     21 C         139.9811  143.8335  163.3747 C.ar    1  UNL1        0.1552
     22 N         140.9005  143.2889  164.4273 N.ar    1  UNL1       -0.1642
     23 N         142.1850  142.8934  163.7612 N.ar    1  UNL1       -0.2414
     24 C         142.0594  143.1936  162.2969 C.ar    1  UNL1        0.0800
     25 C         143.0093  143.0130  161.1502 C.ar    1  UNL1        0.0188
     26 C         142.5972  143.4134  159.7647 C.ar    1  UNL1        0.0015
     27 C         141.2351  143.9945  159.5259 C.ar    1  UNL1        0.0001
     28 C         140.2851  144.1751  160.6725 C.ar    1  UNL1        0.0032
     29 C         140.6973  143.7747  162.0581 C.ar    1  UNL1        0.0411
     30 N         137.6150  144.3951  162.4601 N.am    1  UNL1       -0.3240
     31 C         138.5897  144.3470  163.5993 C.2     1  UNL1        0.2623
     32 O         138.1729  144.8122  164.9630 O.2     1  UNL1       -0.2687
     33 H         136.7018  144.7321  162.6075 H       1  UNL1        0.1453
     34 H         137.8885  144.0897  161.5650 H       1  UNL1        0.1453
@<TRIPOS>BOND
     1    30    31   am
     2    31    32    2
     3    31    21    1
     4    21    22   ar
     5    22    23   ar
     6    23    20    1
     7    20     1    1
     8     1     2    2
     9     1     3   am
    10     3     4    1
    11     4     5    1
    12     6     5    1
    13     6     7    1
    14     7     8    1
    15     8     9    1
    16     9    10    2
    17     9    11   am
    18    11    13    1
    19    13    14   ar
    20    14    15   ar
    21    15    16   ar
    22    16    17   ar
    23    17    18    1
    24    17    19   ar
    25    23    24   ar
    26    24    25   ar
    27    25    26   ar
    28    26    27   ar
    29    27    28   ar
    30    28    29   ar
    31    29    21   ar
    32     8     3    1
    33    19    13   ar
    34    29    24   ar
    35     6     4    1
    36    30    33    1
    37    30    34    1
    38    11    12    1
@<TRIPOS>MOLECULE
*****
 34 38 0 0 0
SMALL
GASTEIGER

@<TRIPOS>ATOM
      1 C         142.3521  139.2838  167.3164 C.2     1  UNL1        0.2508
      2 O         143.5099  138.4594  167.7959 O.2     1  UNL1       -0.2727
      3 N         141.6417  140.2027  168.2655 N.am    1  UNL1       -0.2730
      4 C         141.9738  140.4019  169.7147 C.3     1  UNL1        0.0759
      5 C         142.0660  140.8029  171.1571 C.3     1  UNL1        0.0215
      6 C         141.0118  141.4061  170.2769 C.3     1  UNL1        0.0220
      7 C         140.0851  141.8275  169.1752 C.3     1  UNL1        0.0309
      8 C         140.4744  141.0837  167.9321 C.3     1  UNL1        0.1521
      9 C         139.8125  141.2005  166.5911 C.2     1  UNL1        0.2452
     10 O         138.7931  140.1852  166.1669 O.2     1  UNL1       -0.2730
     11 N         140.1701  142.3326  165.6743 N.am    1  UNL1       -0.2680
     12 H         140.8392  142.9990  165.9528 H       1  UNL1        0.1563
     13 C         139.5083  142.4494  164.3333 C.ar    1  UNL1        0.1347
     14 C         138.3305  143.3611  164.1551 C.ar    1  UNL1        0.0345
     15 C         137.6687  143.4779  162.8141 C.ar    1  UNL1        0.0049
     16 C         138.1846  142.6830  161.6513 C.ar    1  UNL1        0.0261
     17 C         139.3623  141.7714  161.8296 C.ar    1  UNL1        0.1168
     18 BR        139.8783  140.9765  160.6668 Br      1  UNL1       -0.0280
     19 N         140.0242  141.6546  163.1706 N.ar    1  UNL1       -0.2238
     20 C         141.9048  139.1892  165.8877 C.3     1  UNL1        0.2120
     21 C         143.7007  141.8123  163.6609 C.ar    1  UNL1        0.1552
     22 N         143.0514  141.4158  164.9536 N.ar    1  UNL1       -0.1642
     23 N         142.6029  139.9899  164.8287 N.ar    1  UNL1       -0.2414
     24 C         142.9750  139.5052  163.4588 C.ar    1  UNL1        0.0800
     25 C         142.7837  138.1837  162.7754 C.ar    1  UNL1        0.0188
     26 C         143.2709  137.9886  161.3702 C.ar    1  UNL1        0.0015
     27 C         143.9494  139.1150  160.6485 C.ar    1  UNL1        0.0001
     28 C         144.1407  140.4364  161.3319 C.ar    1  UNL1        0.0032
     29 C         143.6535  140.6315  162.7370 C.ar    1  UNL1        0.0411
     30 N         145.0010  143.3751  162.0430 N.am    1  UNL1       -0.3240
     31 C         144.2933  143.1541  163.3471 C.2     1  UNL1        0.2623
     32 O         144.1781  144.2750  164.3371 O.2     1  UNL1       -0.2687
     33 H         145.3899  144.2557  161.8371 H       1  UNL1        0.1453
     34 H         145.0766  142.6394  161.3932 H       1  UNL1        0.1453
@<TRIPOS>BOND
     1    30    31   am
     2    31    32    2
     3    31    21    1
     4    21    22   ar
     5    22    23   ar
     6    23    20    1
     7    20     1    1
     8     1     2    2
     9     1     3   am
    10     3     4    1
    11     4     5    1
    12     6     5    1
    13     6     7    1
    14     7     8    1
    15     8     9    1
    16     9    10    2
    17     9    11   am
    18    11    13    1
    19    13    14   ar
    20    14    15   ar
    21    15    16   ar
    22    16    17   ar
    23    17    18    1
    24    17    19   ar
    25    23    24   ar
    26    24    25   ar
    27    25    26   ar
    28    26    27   ar
    29    27    28   ar
    30    28    29   ar
    31    29    21   ar
    32     8     3    1
    33    19    13   ar
    34    29    24   ar
    35     6     4    1
    36    30    33    1
    37    30    34    1
    38    11    12    1
@<TRIPOS>MOLECULE
*****
 34 38 0 0 0
SMALL
GASTEIGER

@<TRIPOS>ATOM
      1 C         138.9469  139.1800  166.3213 C.2     1  UNL1        0.2508
      2 O         137.5319  138.6858  166.3816 O.2     1  UNL1       -0.2727
      3 N         139.5696  139.8205  167.5263 N.am    1  UNL1       -0.2730
      4 C         138.9047  140.0345  168.8537 C.3     1  UNL1        0.0759
      5 C         138.5148  140.3760  170.2613 C.3     1  UNL1        0.0215
      6 C         139.8907  140.7057  169.7632 C.3     1  UNL1        0.0220
      7 C         141.1650  140.9066  168.9978 C.3     1  UNL1        0.0309
      8 C         140.9666  140.3595  167.6153 C.3     1  UNL1        0.1521
      9 C         141.9861  140.3527  166.5151 C.2     1  UNL1        0.2452
     10 O         142.9130  139.1837  166.3588 O.2     1  UNL1       -0.2730
     11 N         142.0787  141.5147  165.5712 N.am    1  UNL1       -0.2680
     12 H         141.4704  142.2819  165.6738 H       1  UNL1        0.1563
     13 C         143.0982  141.5078  164.4709 C.ar    1  UNL1        0.1347
     14 C         144.4372  142.1493  164.6851 C.ar    1  UNL1        0.0345
     15 C         145.4567  142.1425  163.5849 C.ar    1  UNL1        0.0049
     16 C         145.1373  141.4941  162.2705 C.ar    1  UNL1        0.0261
     17 C         143.7984  140.8527  162.0563 C.ar    1  UNL1        0.1168
     18 BR        143.4790  140.2044  160.7418 Br      1  UNL1       -0.0280
     19 N         142.7789  140.8596  163.1565 N.ar    1  UNL1       -0.2238
     20 C         139.7391  139.0337  165.0559 C.3     1  UNL1        0.2120
     21 C         138.9360  140.4151  161.5187 C.ar    1  UNL1        0.1552
     22 N         139.4266  139.3182  162.4165 N.ar    1  UNL1       -0.1642
     23 N         139.3475  139.8077  163.8322 N.ar    1  UNL1       -0.2414
     24 C         138.8081  141.2072  163.8092 C.ar    1  UNL1        0.0800
     25 C         138.5155  142.1882  164.9056 C.ar    1  UNL1        0.0188
     26 C         137.9687  143.5445  164.5721 C.ar    1  UNL1        0.0015
     27 C         137.7144  143.9199  163.1423 C.ar    1  UNL1        0.0001
     28 C         138.0069  142.9389  162.0459 C.ar    1  UNL1        0.0032
     29 C         138.5537  141.5825  162.3794 C.ar    1  UNL1        0.0411
     30 N         137.5431  140.0007  159.3650 N.am    1  UNL1       -0.3240
     31 C         138.8439  140.3550  160.0227 C.2     1  UNL1        0.2623
     32 O         140.0524  140.6494  159.1844 O.2     1  UNL1       -0.2687
     33 H         137.4827  139.9613  158.3831 H       1  UNL1        0.1453
     34 H         136.7499  139.8075  159.9152 H       1  UNL1        0.1453
@<TRIPOS>BOND
     1    30    31   am
     2    31    32    2
     3    31    21    1
     4    21    22   ar
     5    22    23   ar
     6    23    20    1
     7    20     1    1
     8     1     2    2
     9     1     3   am
    10     3     4    1
    11     4     5    1
    12     6     5    1
    13     6     7    1
    14     7     8    1
    15     8     9    1
    16     9    10    2
    17     9    11   am
    18    11    13    1
    19    13    14   ar
    20    14    15   ar
    21    15    16   ar
    22    16    17   ar
    23    17    18    1
    24    17    19   ar
    25    23    24   ar
    26    24    25   ar
    27    25    26   ar
    28    26    27   ar
    29    27    28   ar
    30    28    29   ar
    31    29    21   ar
    32     8     3    1
    33    19    13   ar
    34    29    24   ar
    35     6     4    1
    36    30    33    1
    37    30    34    1
    38    11    12    1
@<TRIPOS>MOLECULE
*****
 34 38 0 0 0
SMALL
GASTEIGER

@<TRIPOS>ATOM
      1 C         140.5473  142.3299  168.0092 C.2     1  UNL1        0.2508
      2 O         140.3019  143.5268  168.8792 O.2     1  UNL1       -0.2727
      3 N         141.3567  141.1786  168.5283 N.am    1  UNL1       -0.2730
      4 C         141.9812  141.0824  169.8887 C.3     1  UNL1        0.0759
      5 C         142.7058  140.7070  171.1473 C.3     1  UNL1        0.0215
      6 C         142.6942  139.7658  169.9794 C.3     1  UNL1        0.0220
      7 C         142.5102  139.0483  168.6750 C.3     1  UNL1        0.0309
      8 C         141.6836  139.9215  167.7782 C.3     1  UNL1        0.1521
      9 C         141.2586  139.5948  166.3773 C.2     1  UNL1        0.2452
     10 O         139.8722  139.0863  166.1134 O.2     1  UNL1       -0.2730
     11 N         142.2198  139.7767  165.2402 N.am    1  UNL1       -0.2680
     12 H         143.1296  140.1105  165.4134 H       1  UNL1        0.1563
     13 C         141.7947  139.4501  163.8392 C.ar    1  UNL1        0.1347
     14 C         142.1931  138.1431  163.2201 C.ar    1  UNL1        0.0345
     15 C         141.7680  137.8165  161.8191 C.ar    1  UNL1        0.0049
     16 C         140.9446  138.7968  161.0374 C.ar    1  UNL1        0.0261
     17 C         140.5463  140.1036  161.6565 C.ar    1  UNL1        0.1168
     18 BR        139.7229  141.0839  160.8748 Br      1  UNL1       -0.0280
     19 N         140.9713  140.4303  163.0575 N.ar    1  UNL1       -0.2238
     20 C         139.9833  142.2841  166.6199 C.3     1  UNL1        0.2120
     21 C         142.4802  143.7652  164.0438 C.ar    1  UNL1        0.1552
     22 N         142.1949  142.9820  165.2909 N.ar    1  UNL1       -0.1642
     23 N         140.7089  142.9581  165.4933 N.ar    1  UNL1       -0.2414
     24 C         140.0757  143.7265  164.3714 C.ar    1  UNL1        0.0800
     25 C         138.6438  144.0363  164.0498 C.ar    1  UNL1        0.0188
     26 C         138.3066  144.8451  162.8323 C.ar    1  UNL1        0.0015
     27 C         139.4014  145.3439  161.9365 C.ar    1  UNL1        0.0001
     28 C         140.8334  145.0340  162.2580 C.ar    1  UNL1        0.0032
     29 C         141.1705  144.2253  163.4755 C.ar    1  UNL1        0.0411
     30 N         144.1312  145.3726  162.8435 N.am    1  UNL1       -0.3240
     31 C         143.8371  144.0401  163.4663 C.2     1  UNL1        0.2623
     32 O         144.8998  142.9825  163.5116 O.2     1  UNL1       -0.2687
     33 H         145.0218  145.5531  162.4645 H       1  UNL1        0.1453
     34 H         143.4338  146.0668  162.8138 H       1  UNL1        0.1453
@<TRIPOS>BOND
     1    30    31   am
     2    31    32    2
     3    31    21    1
     4    21    22   ar
     5    22    23   ar
     6    23    20    1
     7    20     1    1
     8     1     2    2
     9     1     3   am
    10     3     4    1
    11     4     5    1
    12     6     5    1
    13     6     7    1
    14     7     8    1
    15     8     9    1
    16     9    10    2
    17     9    11   am
    18    11    13    1
    19    13    14   ar
    20    14    15   ar
    21    15    16   ar
    22    16    17   ar
    23    17    18    1
    24    17    19   ar
    25    23    24   ar
    26    24    25   ar
    27    25    26   ar
    28    26    27   ar
    29    27    28   ar
    30    28    29   ar
    31    29    21   ar
    32     8     3    1
    33    19    13   ar
    34    29    24   ar
    35     6     4    1
    36    30    33    1
    37    30    34    1
    38    11    12    1
@<TRIPOS>MOLECULE
*****
 34 38 0 0 0
SMALL
GASTEIGER

@<TRIPOS>ATOM
      1 C         139.3052  139.4651  159.1609 C.2     1  UNL1        0.2508
      2 O         138.5642  139.5621  157.8603 O.2     1  UNL1       -0.2727
      3 N         140.6349  138.7731  159.2167 N.am    1  UNL1       -0.2730
      4 C         141.3453  138.1339  158.0606 C.3     1  UNL1        0.0759
      5 C         142.2746  137.4273  157.1187 C.3     1  UNL1        0.0215
      6 C         142.6371  137.5646  158.5677 C.3     1  UNL1        0.0220
      7 C         142.7250  137.8520  160.0373 C.3     1  UNL1        0.0309
      8 C         141.4875  138.5989  160.4384 C.3     1  UNL1        0.1521
      9 C         141.1603  139.0861  161.8188 C.2     1  UNL1        0.2452
     10 O         141.5976  140.4531  162.2551 O.2     1  UNL1       -0.2730
     11 N         140.3957  138.2064  162.7630 N.am    1  UNL1       -0.2680
     12 H         140.1087  137.3093  162.4767 H       1  UNL1        0.1563
     13 C         140.0684  138.6936  164.1434 C.ar    1  UNL1        0.1347
     14 C         138.6389  138.7754  164.5906 C.ar    1  UNL1        0.0345
     15 C         138.3116  139.2626  165.9710 C.ar    1  UNL1        0.0049
     16 C         139.4139  139.6679  166.9043 C.ar    1  UNL1        0.0261
     17 C         140.8433  139.5861  166.4571 C.ar    1  UNL1        0.1168
     18 BR        141.9455  139.9915  167.3903 Br      1  UNL1       -0.0280
     19 N         141.1705  139.0990  165.0766 N.ar    1  UNL1       -0.2238
     20 C         138.7164  140.0600  160.4058 C.3     1  UNL1        0.2120
     21 C         139.7892  143.7824  160.6475 C.ar    1  UNL1        0.1552
     22 N         139.7657  142.4702  159.9210 N.ar    1  UNL1       -0.1642
     23 N         138.9889  141.4936  160.7533 N.ar    1  UNL1       -0.2414
     24 C         138.5322  142.2021  161.9941 C.ar    1  UNL1        0.0800
     25 C         137.7300  141.7419  163.1750 C.ar    1  UNL1        0.0188
     26 C         137.4224  142.6963  164.2905 C.ar    1  UNL1        0.0015
     27 C         137.9170  144.1109  164.2251 C.ar    1  UNL1        0.0001
     28 C         138.7193  144.5711  163.0442 C.ar    1  UNL1        0.0032
     29 C         139.0269  143.6167  161.9287 C.ar    1  UNL1        0.0411
     30 N         141.8173  145.4057  160.6928 N.am    1  UNL1       -0.3240
     31 C         140.4576  145.0395  160.1756 C.2     1  UNL1        0.2623
     32 O         139.7666  145.9306  159.1865 O.2     1  UNL1       -0.2687
     33 H         142.2560  146.2308  160.3831 H       1  UNL1        0.1453
     34 H         142.2709  144.8208  161.3420 H       1  UNL1        0.1453
@<TRIPOS>BOND
     1    30    31   am
     2    31    32    2
     3    31    21    1
     4    21    22   ar
     5    22    23   ar
     6    23    20    1
     7    20     1    1
     8     1     2    2
     9     1     3   am
    10     3     4    1
    11     4     5    1
    12     6     5    1
    13     6     7    1
    14     7     8    1
    15     8     9    1
    16     9    10    2
    17     9    11   am
    18    11    13    1
    19    13    14   ar
    20    14    15   ar
    21    15    16   ar
    22    16    17   ar
    23    17    18    1
    24    17    19   ar
    25    23    24   ar
    26    24    25   ar
    27    25    26   ar
    28    26    27   ar
    29    27    28   ar
    30    28    29   ar
    31    29    21   ar
    32     8     3    1
    33    19    13   ar
    34    29    24   ar
    35     6     4    1
    36    30    33    1
    37    30    34    1
    38    11    12    1
