@<TRIPOS>MOLECULE
*****
 34 38 0 0 0
SMALL
GASTEIGER

@<TRIPOS>ATOM
      1 N         141.9450  138.2510  159.4790 N.3     1  UNL1       -0.2704
      2 C         140.8320  138.4842  160.4571 C.3     1  UNL1        0.0722
      3 C         141.1444  138.7378  161.9021 C.3     1  UNL1        0.0191
      4 C         142.5697  138.7582  162.3690 C.3     1  UNL1        0.0226
      5 C         143.6827  138.5249  161.3908 C.3     1  UNL1        0.0191
      6 C         143.3703  138.2713  159.9458 C.3     1  UNL1        0.0722
      7 C         143.9390  138.8078  162.9795 C.3     1  UNL1        0.0231
      8 C         143.7832  139.0870  164.4451 C.3     1  UNL1        0.0909
      9 N         142.3176  139.2099  164.7403 N.pl3   1  UNL1       -0.3063
     10 C         141.5677  139.0067  163.4572 C.3     1  UNL1        0.0909
     11 C         141.7090  139.4873  166.0828 C.ar    1  UNL1        0.0676
     12 C         140.2241  139.6557  166.2128 C.ar    1  UNL1        0.0223
     13 C         139.6154  139.9332  167.5554 C.ar    1  UNL1        0.0742
     14 C         140.4916  140.0422  168.7680 C.ar    1  UNL1        0.2653
     15 N         141.9765  139.8738  168.6381 N.ar    1  UNL1       -0.1969
     16 C         142.5851  139.5964  167.2955 C.ar    1  UNL1        0.1177
     17 S         139.8829  140.3196  170.1106 S.O     1  UNL1        0.0773
     18 C         140.7204  140.9091  171.2065 C.3     1  UNL1        0.3270
     19 O         138.4365  140.0076  170.3573 O.co2   1  UNL1       -0.6763
     20 C         141.6326  137.9973  158.0339 C.3     1  UNL1        0.1063
     21 C         142.6637  137.3714  157.1423 C.3     1  UNL1        0.1483
     22 O         143.6704  138.2333  156.4397 O.3     1  UNL1       -0.3786
     23 H         144.2590  137.6750  155.9079 H       1  UNL1        0.2108
     24 C         141.0094  136.1060  154.9831 C.3     1  UNL1        0.0306
     25 C         141.8611  135.2508  155.8738 C.ar    1  UNL1       -0.0238
     26 C         142.6882  135.8835  156.9534 C.ar    1  UNL1        0.0015
     27 C         143.5399  135.0283  157.8441 C.ar    1  UNL1       -0.0020
     28 C         143.5644  133.5405  157.6553 C.ar    1  UNL1        0.0060
     29 C         142.7373  132.9078  156.5757 C.ar    1  UNL1        0.0748
     30 C         141.8856  133.7630  155.6850 C.ar    1  UNL1        0.0233
     31 C         141.1817  132.8629  154.7132 C.3     1  UNL1        0.2352
     32 O         141.5984  131.4514  155.0033 O.3     1  UNL1       -0.4404
     33 C         142.5597  131.4792  156.1544 C.2     1  UNL1        0.3413
     34 O         143.2265  130.2876  156.7752 O.2     1  UNL1       -0.2449
@<TRIPOS>UNITY_ATOM_ATTR
17 1
charge 1
19 1
charge -1
@<TRIPOS>BOND
     1    24    25    1
     2    25    26   ar
     3    26    21    1
     4    21    22    1
     5    21    20    1
     6    20     1    1
     7     1     2    1
     8     2     3    1
     9     3     4    1
    10     4     5    1
    11     5     6    1
    12     4     7    1
    13     7     8    1
    14     8     9    1
    15     9    11    1
    16    11    12   ar
    17    12    13   ar
    18    13    14   ar
    19    14    17    1
    20    17    18    1
    21    17    19    2
    22    14    15   ar
    23    15    16   ar
    24     9    10    1
    25    26    27   ar
    26    27    28   ar
    27    28    29   ar
    28    29    30   ar
    29    30    31    1
    30    31    32    1
    31    32    33    1
    32    33    34    2
    33    30    25   ar
    34     6     1    1
    35    16    11   ar
    36    33    29    1
    37    10     4    1
    38    22    23    1
@<TRIPOS>MOLECULE
*****
 34 38 0 0 0
SMALL
GASTEIGER

@<TRIPOS>ATOM
      1 N         138.5315  139.1263  164.4401 N.3     1  UNL1       -0.2704
      2 C         137.9963  140.3752  163.8047 C.3     1  UNL1        0.0722
      3 C         138.0757  140.5534  162.3175 C.3     1  UNL1        0.0191
      4 C         138.6902  139.4826  161.4656 C.3     1  UNL1        0.0226
      5 C         139.2254  138.2336  162.1009 C.3     1  UNL1        0.0191
      6 C         139.1460  138.0555  163.5881 C.3     1  UNL1        0.0722
      7 C         139.2738  138.5038  160.4902 C.3     1  UNL1        0.0231
      8 C         139.1442  139.0871  159.1143 C.3     1  UNL1        0.0909
      9 N         138.4804  140.4265  159.2394 N.pl3   1  UNL1       -0.3063
     10 C         138.1998  140.6709  160.6925 C.3     1  UNL1        0.0909
     11 C         138.1544  141.3578  158.1097 C.ar    1  UNL1        0.0676
     12 C         137.0151  141.0458  157.1854 C.ar    1  UNL1        0.0223
     13 C         136.6891  141.9772  156.0557 C.ar    1  UNL1        0.0742
     14 C         137.5025  143.2207  155.8503 C.ar    1  UNL1        0.2653
     15 N         138.6420  143.5327  156.7746 N.ar    1  UNL1       -0.1969
     16 C         138.9679  142.6013  157.9043 C.ar    1  UNL1        0.1177
     17 S         137.1766  144.1521  154.7206 S.O     1  UNL1        0.0773
     18 C         136.6523  143.6059  153.4257 C.3     1  UNL1        0.3270
     19 O         137.3749  145.6298  154.8858 O.co2   1  UNL1       -0.6763
     20 C         138.4521  138.9481  165.9274 C.3     1  UNL1        0.1063
     21 C         139.5036  139.5496  166.8120 C.3     1  UNL1        0.1483
     22 O         139.2556  139.6873  168.2849 O.3     1  UNL1       -0.3786
     23 H         140.0297  140.0920  168.7067 H       1  UNL1        0.2108
     24 C         139.9001  142.4484  166.1486 C.3     1  UNL1        0.0306
     25 C         141.0014  141.4628  165.8919 C.ar    1  UNL1       -0.0238
     26 C         140.8032  140.0135  166.2236 C.ar    1  UNL1        0.0015
     27 C         141.9044  139.0279  165.9670 C.ar    1  UNL1       -0.0020
     28 C         143.2039  139.4917  165.3787 C.ar    1  UNL1        0.0060
     29 C         143.4022  140.9411  165.0470 C.ar    1  UNL1        0.0748
     30 C         142.3009  141.9266  165.3036 C.ar    1  UNL1        0.0233
     31 C         142.7830  143.2817  164.8778 C.3     1  UNL1        0.2352
     32 O         144.1822  143.1336  164.3579 O.3     1  UNL1       -0.4404
     33 C         144.5649  141.6871  164.4626 C.2     1  UNL1        0.3413
     34 O         145.8795  141.0910  164.0544 O.2     1  UNL1       -0.2449
@<TRIPOS>UNITY_ATOM_ATTR
17 1
charge 1
19 1
charge -1
@<TRIPOS>BOND
     1    24    25    1
     2    25    26   ar
     3    26    21    1
     4    21    22    1
     5    21    20    1
     6    20     1    1
     7     1     2    1
     8     2     3    1
     9     3     4    1
    10     4     5    1
    11     5     6    1
    12     4     7    1
    13     7     8    1
    14     8     9    1
    15     9    11    1
    16    11    12   ar
    17    12    13   ar
    18    13    14   ar
    19    14    17    1
    20    17    18    1
    21    17    19    2
    22    14    15   ar
    23    15    16   ar
    24     9    10    1
    25    26    27   ar
    26    27    28   ar
    27    28    29   ar
    28    29    30   ar
    29    30    31    1
    30    31    32    1
    31    32    33    1
    32    33    34    2
    33    30    25   ar
    34     6     1    1
    35    16    11   ar
    36    33    29    1
    37    10     4    1
    38    22    23    1
@<TRIPOS>MOLECULE
*****
 34 38 0 0 0
SMALL
GASTEIGER

@<TRIPOS>ATOM
      1 N         144.9473  141.5490  163.1967 N.3     1  UNL1       -0.2704
      2 C         144.6867  141.8997  161.7618 C.3     1  UNL1        0.0722
      3 C         144.0922  140.8797  160.8365 C.3     1  UNL1        0.0191
      4 C         143.7582  139.5091  161.3462 C.3     1  UNL1        0.0226
      5 C         144.0187  139.1584  162.7812 C.3     1  UNL1        0.0191
      6 C         144.6133  140.1784  163.7064 C.3     1  UNL1        0.0722
      7 C         143.3744  138.1055  161.7107 C.3     1  UNL1        0.0231
      8 C         142.8220  137.4425  160.4837 C.3     1  UNL1        0.0909
      9 N         142.8644  138.4364  159.3609 N.pl3   1  UNL1       -0.3063
     10 C         143.4430  139.7135  159.8940 C.3     1  UNL1        0.0909
     11 C         142.4084  138.1954  157.9525 C.ar    1  UNL1        0.0676
     12 C         142.8150  136.9415  157.2366 C.ar    1  UNL1        0.0223
     13 C         142.3589  136.7005  155.8281 C.ar    1  UNL1        0.0742
     14 C         141.4962  137.7133  155.1354 C.ar    1  UNL1        0.2653
     15 N         141.0894  138.9673  155.8513 N.ar    1  UNL1       -0.1969
     16 C         141.5456  139.2082  157.2598 C.ar    1  UNL1        0.1177
     17 S         141.0401  137.4723  153.7269 S.O     1  UNL1        0.0773
     18 C         141.7887  136.5129  152.8500 C.3     1  UNL1        0.3270
     19 O         139.8353  138.1908  153.1954 O.co2   1  UNL1       -0.6763
     20 C         145.5419  142.5690  164.1221 C.3     1  UNL1        0.1063
     21 C         144.6466  143.4524  164.9394 C.3     1  UNL1        0.1483
     22 O         145.1664  144.0941  166.1916 O.3     1  UNL1       -0.3786
     23 H         144.4652  144.6285  166.5961 H       1  UNL1        0.2108
     24 C         142.4051  141.9087  166.2015 C.3     1  UNL1        0.0306
     25 C         142.1107  142.9222  165.1356 C.ar    1  UNL1       -0.0238
     26 C         143.2314  143.6940  164.5045 C.ar    1  UNL1        0.0015
     27 C         142.9371  144.7076  163.4386 C.ar    1  UNL1       -0.0020
     28 C         141.5220  144.9492  163.0038 C.ar    1  UNL1        0.0060
     29 C         140.4013  144.1774  163.6348 C.ar    1  UNL1        0.0748
     30 C         140.6957  143.1639  164.7007 C.ar    1  UNL1        0.0233
     31 C         139.3942  142.5596  165.1379 C.3     1  UNL1        0.2352
     32 O         138.2955  143.1997  164.3421 O.3     1  UNL1       -0.4404
     33 C         138.9179  144.1995  163.4132 C.2     1  UNL1        0.3413
     34 O         138.1856  145.0688  162.4345 O.2     1  UNL1       -0.2449
@<TRIPOS>UNITY_ATOM_ATTR
17 1
charge 1
19 1
charge -1
@<TRIPOS>BOND
     1    24    25    1
     2    25    26   ar
     3    26    21    1
     4    21    22    1
     5    21    20    1
     6    20     1    1
     7     1     2    1
     8     2     3    1
     9     3     4    1
    10     4     5    1
    11     5     6    1
    12     4     7    1
    13     7     8    1
    14     8     9    1
    15     9    11    1
    16    11    12   ar
    17    12    13   ar
    18    13    14   ar
    19    14    17    1
    20    17    18    1
    21    17    19    2
    22    14    15   ar
    23    15    16   ar
    24     9    10    1
    25    26    27   ar
    26    27    28   ar
    27    28    29   ar
    28    29    30   ar
    29    30    31    1
    30    31    32    1
    31    32    33    1
    32    33    34    2
    33    30    25   ar
    34     6     1    1
    35    16    11   ar
    36    33    29    1
    37    10     4    1
    38    22    23    1
@<TRIPOS>MOLECULE
*****
 34 38 0 0 0
SMALL
GASTEIGER

@<TRIPOS>ATOM
      1 N         143.7140  139.7886  162.9304 N.3     1  UNL1       -0.2704
      2 C         143.3896  138.3646  162.5885 C.3     1  UNL1        0.0722
      3 C         143.1643  137.9691  161.1593 C.3     1  UNL1        0.0191
      4 C         143.2635  138.9976  160.0719 C.3     1  UNL1        0.0226
      5 C         143.5879  140.4216  160.4138 C.3     1  UNL1        0.0191
      6 C         143.8132  140.8171  161.8430 C.3     1  UNL1        0.0722
      7 C         143.3289  139.9106  158.8836 C.3     1  UNL1        0.0231
      8 C         143.0391  139.0968  157.6572 C.3     1  UNL1        0.0909
      9 N         142.7945  137.6808  158.0877 N.pl3   1  UNL1       -0.3063
     10 C         142.9332  137.6195  159.5800 C.3     1  UNL1        0.0909
     11 C         142.4686  136.5286  157.1844 C.ar    1  UNL1        0.0676
     12 C         143.2564  135.2556  157.2785 C.ar    1  UNL1        0.0223
     13 C         142.9304  134.1033  156.3752 C.ar    1  UNL1        0.0742
     14 C         141.8166  134.2240  155.3778 C.ar    1  UNL1        0.2653
     15 N         141.0287  135.4970  155.2836 N.ar    1  UNL1       -0.1969
     16 C         141.3548  136.6493  156.1870 C.ar    1  UNL1        0.1177
     17 S         141.4905  133.0717  154.4745 S.O     1  UNL1        0.0773
     18 C         141.9515  133.0839  153.0471 C.3     1  UNL1        0.3270
     19 O         140.7035  131.9072  154.9986 O.co2   1  UNL1       -0.6763
     20 C         143.9393  140.1842  164.3597 C.3     1  UNL1        0.1063
     21 C         142.7695  140.5018  165.2433 C.3     1  UNL1        0.1483
     22 O         142.7859  140.0910  166.6858 O.3     1  UNL1       -0.3786
     23 H         141.9601  140.3707  167.1111 H       1  UNL1        0.2108
     24 C         140.2899  138.9843  164.5023 C.3     1  UNL1        0.0306
     25 C         140.3435  140.4715  164.3138 C.ar    1  UNL1       -0.0238
     26 C         141.5833  141.2302  164.6843 C.ar    1  UNL1        0.0015
     27 C         141.6369  142.7173  164.4958 C.ar    1  UNL1       -0.0020
     28 C         140.4508  143.4458  163.9369 C.ar    1  UNL1        0.0060
     29 C         139.2110  142.6870  163.5664 C.ar    1  UNL1        0.0748
     30 C         139.1574  141.1999  163.7549 C.ar    1  UNL1        0.0233
     31 C         137.8088  140.7237  163.3027 C.3     1  UNL1        0.2352
     32 O         137.0289  141.9165  162.8348 O.3     1  UNL1       -0.4404
     33 C         137.8955  143.1299  162.9978 C.2     1  UNL1        0.3413
     34 O         137.5137  144.5389  162.6528 O.2     1  UNL1       -0.2449
@<TRIPOS>UNITY_ATOM_ATTR
17 1
charge 1
19 1
charge -1
@<TRIPOS>BOND
     1    24    25    1
     2    25    26   ar
     3    26    21    1
     4    21    22    1
     5    21    20    1
     6    20     1    1
     7     1     2    1
     8     2     3    1
     9     3     4    1
    10     4     5    1
    11     5     6    1
    12     4     7    1
    13     7     8    1
    14     8     9    1
    15     9    11    1
    16    11    12   ar
    17    12    13   ar
    18    13    14   ar
    19    14    17    1
    20    17    18    1
    21    17    19    2
    22    14    15   ar
    23    15    16   ar
    24     9    10    1
    25    26    27   ar
    26    27    28   ar
    27    28    29   ar
    28    29    30   ar
    29    30    31    1
    30    31    32    1
    31    32    33    1
    32    33    34    2
    33    30    25   ar
    34     6     1    1
    35    16    11   ar
    36    33    29    1
    37    10     4    1
    38    22    23    1
@<TRIPOS>MOLECULE
*****
 34 38 0 0 0
SMALL
GASTEIGER

@<TRIPOS>ATOM
      1 N         143.0304  139.7707  162.8792 N.3     1  UNL1       -0.2704
      2 C         142.5728  138.4010  162.4735 C.3     1  UNL1        0.0722
      3 C         142.5645  138.0115  161.0250 C.3     1  UNL1        0.0191
      4 C         143.0139  138.9917  159.9823 C.3     1  UNL1        0.0226
      5 C         143.4715  140.3613  160.3879 C.3     1  UNL1        0.0191
      6 C         143.4797  140.7508  161.8364 C.3     1  UNL1        0.0722
      7 C         143.4326  139.8603  158.8333 C.3     1  UNL1        0.0231
      8 C         143.2630  139.0706  157.5692 C.3     1  UNL1        0.0909
      9 N         142.7393  137.7139  157.9371 N.pl3   1  UNL1       -0.3063
     10 C         142.5854  137.6651  159.4283 C.3     1  UNL1        0.0909
     11 C         142.4249  136.6014  156.9815 C.ar    1  UNL1        0.0676
     12 C         141.2108  136.6864  156.1047 C.ar    1  UNL1        0.0223
     13 C         140.8963  135.5738  155.1491 C.ar    1  UNL1        0.0742
     14 C         141.7960  134.3762  155.0701 C.ar    1  UNL1        0.2653
     15 N         143.0102  134.2911  155.9468 N.ar    1  UNL1       -0.1969
     16 C         143.3246  135.4037  156.9025 C.ar    1  UNL1        0.1177
     17 S         141.4816  133.2636  154.1144 S.O     1  UNL1        0.0773
     18 C         141.7946  133.4171  152.6555 C.3     1  UNL1        0.3270
     19 O         140.8541  131.9974  154.6177 O.co2   1  UNL1       -0.6763
     20 C         143.0386  140.1603  164.3278 C.3     1  UNL1        0.1063
     21 C         141.9877  141.0884  164.8608 C.3     1  UNL1        0.1483
     22 O         141.0979  141.8371  163.9134 O.3     1  UNL1       -0.3786
     23 H         140.4795  142.3883  164.4180 H       1  UNL1        0.2108
     24 C         139.6684  139.8227  166.2816 C.3     1  UNL1        0.0306
     25 C         140.6669  140.6349  167.0517 C.ar    1  UNL1       -0.0238
     26 C         141.8266  141.2678  166.3414 C.ar    1  UNL1        0.0015
     27 C         142.8252  142.0800  167.1115 C.ar    1  UNL1       -0.0020
     28 C         142.6641  142.2594  168.5919 C.ar    1  UNL1        0.0060
     29 C         141.5045  141.6266  169.3023 C.ar    1  UNL1        0.0748
     30 C         140.5059  140.8144  168.5322 C.ar    1  UNL1        0.0233
     31 C         139.4721  140.3144  169.4973 C.3     1  UNL1        0.2352
     32 O         139.8317  140.8176  170.8638 O.3     1  UNL1       -0.4404
     33 C         141.0878  141.6286  170.7433 C.2     1  UNL1        0.3413
     34 O         141.8019  142.3202  171.8666 O.2     1  UNL1       -0.2449
@<TRIPOS>UNITY_ATOM_ATTR
17 1
charge 1
19 1
charge -1
@<TRIPOS>BOND
     1    24    25    1
     2    25    26   ar
     3    26    21    1
     4    21    22    1
     5    21    20    1
     6    20     1    1
     7     1     2    1
     8     2     3    1
     9     3     4    1
    10     4     5    1
    11     5     6    1
    12     4     7    1
    13     7     8    1
    14     8     9    1
    15     9    11    1
    16    11    12   ar
    17    12    13   ar
    18    13    14   ar
    19    14    17    1
    20    17    18    1
    21    17    19    2
    22    14    15   ar
    23    15    16   ar
    24     9    10    1
    25    26    27   ar
    26    27    28   ar
    27    28    29   ar
    28    29    30   ar
    29    30    31    1
    30    31    32    1
    31    32    33    1
    32    33    34    2
    33    30    25   ar
    34     6     1    1
    35    16    11   ar
    36    33    29    1
    37    10     4    1
    38    22    23    1
@<TRIPOS>MOLECULE
*****
 34 38 0 0 0
SMALL
GASTEIGER

@<TRIPOS>ATOM
      1 N         140.3251  142.8625  161.0985 N.3     1  UNL1       -0.2704
      2 C         139.6392  142.1229  159.9883 C.3     1  UNL1        0.0722
      3 C         140.2870  140.9146  159.3798 C.3     1  UNL1        0.0191
      4 C         141.6207  140.4459  159.8814 C.3     1  UNL1        0.0226
      5 C         142.3066  141.1855  160.9916 C.3     1  UNL1        0.0191
      6 C         141.6588  142.3938  161.6001 C.3     1  UNL1        0.0722
      7 C         142.9448  139.8622  160.2766 C.3     1  UNL1        0.0231
      8 C         143.2006  138.6646  159.4102 C.3     1  UNL1        0.0909
      9 N         142.0345  138.5082  158.4796 N.pl3   1  UNL1       -0.3063
     10 C         141.0581  139.6090  158.7708 C.3     1  UNL1        0.0909
     11 C         141.8732  137.4388  157.4403 C.ar    1  UNL1        0.0676
     12 C         140.6833  137.4538  156.5272 C.ar    1  UNL1        0.0223
     13 C         140.5220  136.3842  155.4878 C.ar    1  UNL1        0.0742
     14 C         141.5506  135.2998  155.3617 C.ar    1  UNL1        0.2653
     15 N         142.7406  135.2848  156.2749 N.ar    1  UNL1       -0.1969
     16 C         142.9018  136.3543  157.3142 C.ar    1  UNL1        0.1177
     17 S         141.3893  134.2303  154.3224 S.O     1  UNL1        0.0773
     18 C         141.3435  134.5978  152.8688 C.3     1  UNL1        0.3270
     19 O         141.2738  132.7932  154.7367 O.co2   1  UNL1       -0.6763
     20 C         139.6774  144.0708  161.7071 C.3     1  UNL1        0.1063
     21 C         138.6622  143.9076  162.7992 C.3     1  UNL1        0.1483
     22 O         137.3462  144.6223  162.7129 O.3     1  UNL1       -0.3786
     23 H         136.8111  144.4099  163.4935 H       1  UNL1        0.2108
     24 C         137.3979  141.1952  163.0105 C.3     1  UNL1        0.0306
     25 C         138.3308  141.6735  164.0833 C.ar    1  UNL1       -0.0238
     26 C         138.9629  143.0296  163.9777 C.ar    1  UNL1        0.0015
     27 C         139.8958  143.5079  165.0505 C.ar    1  UNL1       -0.0020
     28 C         140.1966  142.6300  166.2290 C.ar    1  UNL1        0.0060
     29 C         139.5645  141.2739  166.3346 C.ar    1  UNL1        0.0748
     30 C         138.6316  140.7956  165.2618 C.ar    1  UNL1        0.0233
     31 C         138.1613  139.4211  165.6354 C.3     1  UNL1        0.2352
     32 O         138.8036  139.0498  166.9391 O.3     1  UNL1       -0.4404
     33 C         139.6708  140.1949  167.3712 C.2     1  UNL1        0.3413
     34 O         140.4989  140.2512  168.6206 O.2     1  UNL1       -0.2449
@<TRIPOS>UNITY_ATOM_ATTR
17 1
charge 1
19 1
charge -1
@<TRIPOS>BOND
     1    24    25    1
     2    25    26   ar
     3    26    21    1
     4    21    22    1
     5    21    20    1
     6    20     1    1
     7     1     2    1
     8     2     3    1
     9     3     4    1
    10     4     5    1
    11     5     6    1
    12     4     7    1
    13     7     8    1
    14     8     9    1
    15     9    11    1
    16    11    12   ar
    17    12    13   ar
    18    13    14   ar
    19    14    17    1
    20    17    18    1
    21    17    19    2
    22    14    15   ar
    23    15    16   ar
    24     9    10    1
    25    26    27   ar
    26    27    28   ar
    27    28    29   ar
    28    29    30   ar
    29    30    31    1
    30    31    32    1
    31    32    33    1
    32    33    34    2
    33    30    25   ar
    34     6     1    1
    35    16    11   ar
    36    33    29    1
    37    10     4    1
    38    22    23    1
@<TRIPOS>MOLECULE
*****
 34 38 0 0 0
SMALL
GASTEIGER

@<TRIPOS>ATOM
      1 N         140.5420  138.4007  159.6612 N.3     1  UNL1       -0.2704
      2 C         139.6387  138.6577  160.8308 C.3     1  UNL1        0.0722
      3 C         140.2208  138.8493  162.1999 C.3     1  UNL1        0.0191
      4 C         141.7060  138.7840  162.3994 C.3     1  UNL1        0.0226
      5 C         142.6092  138.5270  161.2297 C.3     1  UNL1        0.0191
      6 C         142.0272  138.3354  159.8606 C.3     1  UNL1        0.0722
      7 C         143.1638  138.7461  162.7509 C.3     1  UNL1        0.0231
      8 C         143.2912  138.9859  164.2262 C.3     1  UNL1        0.0909
      9 N         141.9121  139.1719  164.7864 N.pl3   1  UNL1       -0.3063
     10 C         140.9325  139.0472  163.6574 C.3     1  UNL1        0.0909
     11 C         141.5724  139.4363  166.2232 C.ar    1  UNL1        0.0676
     12 C         142.6244  139.2879  167.2822 C.ar    1  UNL1        0.0223
     13 C         142.2847  139.5523  168.7191 C.ar    1  UNL1        0.0742
     14 C         140.8930  139.9651  169.0971 C.ar    1  UNL1        0.2653
     15 N         139.8410  140.1136  168.0381 N.ar    1  UNL1       -0.1969
     16 C         140.1808  139.8492  166.6012 C.ar    1  UNL1        0.1177
     17 S         140.5533  140.2295  170.5340 S.O     1  UNL1        0.0773
     18 C         141.3177  141.2626  171.3075 C.3     1  UNL1        0.3270
     19 O         139.4491  139.4608  171.1973 O.co2   1  UNL1       -0.6763
     20 C         139.9600  138.2091  158.2920 C.3     1  UNL1        0.1063
     21 C         139.4296  139.3878  157.5308 C.3     1  UNL1        0.1483
     22 O         138.6911  139.1777  156.2421 O.3     1  UNL1       -0.3786
     23 H         138.4185  140.0362  155.8821 H       1  UNL1        0.2108
     24 C         142.0063  140.8266  156.9919 C.3     1  UNL1        0.0306
     25 C         140.9260  141.4959  157.7888 C.ar    1  UNL1       -0.0238
     26 C         139.6377  140.7765  158.0582 C.ar    1  UNL1        0.0015
     27 C         138.5574  141.4458  158.8550 C.ar    1  UNL1       -0.0020
     28 C         138.7654  142.8345  159.3824 C.ar    1  UNL1        0.0060
     29 C         140.0538  143.5539  159.1130 C.ar    1  UNL1        0.0748
     30 C         141.1341  142.8846  158.3162 C.ar    1  UNL1        0.0233
     31 C         142.2896  143.8353  158.2116 C.3     1  UNL1        0.2352
     32 O         141.9234  145.0922  158.9438 O.3     1  UNL1       -0.4404
     33 C         140.5416  144.9183  159.5009 C.2     1  UNL1        0.3413
     34 O         139.7811  145.9310  160.3047 O.2     1  UNL1       -0.2449
@<TRIPOS>UNITY_ATOM_ATTR
17 1
charge 1
19 1
charge -1
@<TRIPOS>BOND
     1    24    25    1
     2    25    26   ar
     3    26    21    1
     4    21    22    1
     5    21    20    1
     6    20     1    1
     7     1     2    1
     8     2     3    1
     9     3     4    1
    10     4     5    1
    11     5     6    1
    12     4     7    1
    13     7     8    1
    14     8     9    1
    15     9    11    1
    16    11    12   ar
    17    12    13   ar
    18    13    14   ar
    19    14    17    1
    20    17    18    1
    21    17    19    2
    22    14    15   ar
    23    15    16   ar
    24     9    10    1
    25    26    27   ar
    26    27    28   ar
    27    28    29   ar
    28    29    30   ar
    29    30    31    1
    30    31    32    1
    31    32    33    1
    32    33    34    2
    33    30    25   ar
    34     6     1    1
    35    16    11   ar
    36    33    29    1
    37    10     4    1
    38    22    23    1
@<TRIPOS>MOLECULE
*****
 34 38 0 0 0
SMALL
GASTEIGER

@<TRIPOS>ATOM
      1 N         140.0866  138.1053  162.3295 N.3     1  UNL1       -0.2704
      2 C         141.4984  138.6070  162.2583 C.3     1  UNL1        0.0722
      3 C         142.0601  139.0831  160.9515 C.3     1  UNL1        0.0191
      4 C         141.2101  139.0576  159.7160 C.3     1  UNL1        0.0226
      5 C         139.7983  138.5560  159.7871 C.3     1  UNL1        0.0191
      6 C         139.2365  138.0798  161.0939 C.3     1  UNL1        0.0722
      7 C         140.4837  139.0913  158.4039 C.3     1  UNL1        0.0231
      8 C         141.4215  139.6382  157.3688 C.3     1  UNL1        0.0909
      9 N         142.7275  139.9426  158.0411 N.pl3   1  UNL1       -0.3063
     10 C         142.5968  139.5838  159.4916 C.3     1  UNL1        0.0909
     11 C         143.9495  140.5067  157.3790 C.ar    1  UNL1        0.0676
     12 C         144.6337  141.7061  157.9647 C.ar    1  UNL1        0.0223
     13 C         145.8558  142.2703  157.3027 C.ar    1  UNL1        0.0742
     14 C         146.3936  141.6349  156.0549 C.ar    1  UNL1        0.2653
     15 N         145.7094  140.4353  155.4691 N.ar    1  UNL1       -0.1969
     16 C         144.4874  139.8713  156.1313 C.ar    1  UNL1        0.1177
     17 S         147.6157  142.1990  155.3928 S.O     1  UNL1        0.0773
     18 C         147.4738  143.1396  154.2330 C.3     1  UNL1        0.3270
     19 O         148.9798  141.8225  155.8906 O.co2   1  UNL1       -0.6763
     20 C         139.5249  137.6292  163.6364 C.3     1  UNL1        0.1063
     21 C         138.8245  138.5932  164.5474 C.3     1  UNL1        0.1483
     22 O         138.2161  138.1067  165.8293 O.3     1  UNL1       -0.3786
     23 H         137.8060  138.8518  166.2958 H       1  UNL1        0.2108
     24 C         140.7778  140.5610  165.6930 C.3     1  UNL1        0.0306
     25 C         139.7092  141.0276  164.7494 C.ar    1  UNL1       -0.0238
     26 C         138.7325  140.0438  164.1767 C.ar    1  UNL1        0.0015
     27 C         137.6639  140.5104  163.2331 C.ar    1  UNL1       -0.0020
     28 C         137.5719  141.9609  162.8624 C.ar    1  UNL1        0.0060
     29 C         138.5486  142.9448  163.4352 C.ar    1  UNL1        0.0748
     30 C         139.6172  142.4782  164.3787 C.ar    1  UNL1        0.0233
     31 C         140.4332  143.6707  164.7812 C.3     1  UNL1        0.2352
     32 O         139.8689  144.8744  164.0864 O.3     1  UNL1       -0.4404
     33 C         138.7041  144.4257  163.2545 C.2     1  UNL1        0.3413
     34 O         137.8456  145.3039  162.3932 O.2     1  UNL1       -0.2449
@<TRIPOS>UNITY_ATOM_ATTR
17 1
charge 1
19 1
charge -1
@<TRIPOS>BOND
     1    24    25    1
     2    25    26   ar
     3    26    21    1
     4    21    22    1
     5    21    20    1
     6    20     1    1
     7     1     2    1
     8     2     3    1
     9     3     4    1
    10     4     5    1
    11     5     6    1
    12     4     7    1
    13     7     8    1
    14     8     9    1
    15     9    11    1
    16    11    12   ar
    17    12    13   ar
    18    13    14   ar
    19    14    17    1
    20    17    18    1
    21    17    19    2
    22    14    15   ar
    23    15    16   ar
    24     9    10    1
    25    26    27   ar
    26    27    28   ar
    27    28    29   ar
    28    29    30   ar
    29    30    31    1
    30    31    32    1
    31    32    33    1
    32    33    34    2
    33    30    25   ar
    34     6     1    1
    35    16    11   ar
    36    33    29    1
    37    10     4    1
    38    22    23    1
@<TRIPOS>MOLECULE
*****
 34 38 0 0 0
SMALL
GASTEIGER

@<TRIPOS>ATOM
      1 N         141.6665  137.7486  157.2092 N.3     1  UNL1       -0.2704
      2 C         142.6649  137.8179  158.3265 C.3     1  UNL1        0.0722
      3 C         142.2133  138.1590  159.7156 C.3     1  UNL1        0.0191
      4 C         140.7634  138.4308  159.9875 C.3     1  UNL1        0.0226
      5 C         139.7651  138.3615  158.8702 C.3     1  UNL1        0.0191
      6 C         140.2166  138.0204  157.4810 C.3     1  UNL1        0.0722
      7 C         139.3545  138.7259  160.4091 C.3     1  UNL1        0.0231
      8 C         139.3618  139.0142  161.8812 C.3     1  UNL1        0.0909
      9 N         140.7754  138.8972  162.3693 N.pl3   1  UNL1       -0.3063
     10 C         141.6416  138.5367  161.1990 C.3     1  UNL1        0.0909
     11 C         141.2410  139.1044  163.7800 C.ar    1  UNL1        0.0676
     12 C         142.5617  138.5485  164.2232 C.ar    1  UNL1        0.0223
     13 C         143.0273  138.7557  165.6340 C.ar    1  UNL1        0.0742
     14 C         142.1721  139.5189  166.6016 C.ar    1  UNL1        0.2653
     15 N         140.8512  140.0748  166.1584 N.ar    1  UNL1       -0.1969
     16 C         140.3858  139.8676  164.7476 C.ar    1  UNL1        0.1177
     17 S         142.6377  139.7261  168.0124 S.O     1  UNL1        0.0773
     18 C         142.6346  141.1024  168.6087 C.3     1  UNL1        0.3270
     19 O         143.1063  138.5568  168.8269 O.co2   1  UNL1       -0.6763
     20 C         142.1180  137.4075  155.8200 C.3     1  UNL1        0.1063
     21 C         143.2373  136.4305  155.6138 C.3     1  UNL1        0.1483
     22 O         144.6613  136.8816  155.7501 O.3     1  UNL1       -0.3786
     23 H         145.2550  136.1322  155.5863 H       1  UNL1        0.2108
     24 C         143.5702  134.2871  157.6863 C.3     1  UNL1        0.0306
     25 C         143.0990  133.9305  156.3076 C.ar    1  UNL1       -0.0238
     26 C         142.9326  135.0022  155.2714 C.ar    1  UNL1        0.0015
     27 C         142.4614  134.6456  153.8927 C.ar    1  UNL1       -0.0020
     28 C         142.1567  133.2174  153.5502 C.ar    1  UNL1        0.0060
     29 C         142.3231  132.1457  154.5865 C.ar    1  UNL1        0.0748
     30 C         142.7943  132.5023  155.9652 C.ar    1  UNL1        0.0233
     31 C         142.8640  131.2398  156.7722 C.3     1  UNL1        0.2352
     32 O         142.4359  130.1030  155.8922 O.3     1  UNL1       -0.4404
     33 C         142.1016  130.6629  154.5414 C.2     1  UNL1        0.3413
     34 O         141.6288  129.8777  153.3540 O.2     1  UNL1       -0.2449
@<TRIPOS>UNITY_ATOM_ATTR
17 1
charge 1
19 1
charge -1
@<TRIPOS>BOND
     1    24    25    1
     2    25    26   ar
     3    26    21    1
     4    21    22    1
     5    21    20    1
     6    20     1    1
     7     1     2    1
     8     2     3    1
     9     3     4    1
    10     4     5    1
    11     5     6    1
    12     4     7    1
    13     7     8    1
    14     8     9    1
    15     9    11    1
    16    11    12   ar
    17    12    13   ar
    18    13    14   ar
    19    14    17    1
    20    17    18    1
    21    17    19    2
    22    14    15   ar
    23    15    16   ar
    24     9    10    1
    25    26    27   ar
    26    27    28   ar
    27    28    29   ar
    28    29    30   ar
    29    30    31    1
    30    31    32    1
    31    32    33    1
    32    33    34    2
    33    30    25   ar
    34     6     1    1
    35    16    11   ar
    36    33    29    1
    37    10     4    1
    38    22    23    1
