@<TRIPOS>MOLECULE
*****
 41 45 0 0 0
SMALL
GASTEIGER

@<TRIPOS>ATOM
      1 C         143.3933  142.9258  160.6040 C.ar    1  UNL1        0.0655
      2 C         142.3339  143.7087  161.3215 C.ar    1  UNL1        0.0337
      3 C         141.4116  144.6050  160.5496 C.ar    1  UNL1        0.0862
      4 C         141.5486  144.7186  159.0602 C.ar    1  UNL1        0.1534
      5 C         142.6080  143.9357  158.3427 C.ar    1  UNL1        0.0539
      6 C         143.5303  143.0393  159.1146 C.ar    1  UNL1        0.0647
      7 C         144.8830  142.4872  162.6869 C.2     1  UNL1        0.2497
      8 O         144.7027  143.4445  163.1837 O.2     1  UNL1       -0.2698
      9 N         144.3156  142.0294  161.3759 N.am    1  UNL1       -0.2794
     10 H         144.5485  141.1407  161.0222 H       1  UNL1        0.1552
     11 C         145.2781  140.3360  164.0890 C.2     1  UNL1        0.0048
     12 C         145.8054  141.5908  163.4588 C.2     1  UNL1        0.0580
     13 N         140.3522  145.3879  161.2671 N.pl3   1  UNL1       -0.2801
     14 H         140.1611  146.3163  161.0010 H       1  UNL1        0.1552
     15 C         139.5839  144.7562  162.3900 C.ar    1  UNL1        0.2207
     16 N         138.0975  144.9380  162.4771 N.ar    1  UNL1       -0.2120
     17 C         137.3293  144.3063  163.6000 C.ar    1  UNL1        0.1034
     18 C         138.0474  143.4928  164.6356 C.ar    1  UNL1        0.0400
     19 C         139.5338  143.3110  164.5484 C.ar    1  UNL1        0.0872
     20 N         140.3020  143.9427  163.4256 N.ar    1  UNL1       -0.2135
     21 C         140.2519  142.4975  165.5841 C.ar    1  UNL1        0.0364
     22 C         140.4358  142.8693  167.0256 C.ar    1  UNL1        0.0774
     23 N         141.2098  141.7710  167.6925 N.ar    1  UNL1       -0.3263
     24 C         141.5042  140.7204  166.6630 C.ar    1  UNL1        0.0559
     25 C         142.2348  139.4129  166.7438 C.ar    1  UNL1       -0.0063
     26 C         142.3735  138.5544  165.5217 C.ar    1  UNL1       -0.0028
     27 C         141.7815  139.0035  164.2187 C.ar    1  UNL1       -0.0002
     28 C         141.0508  140.3110  164.1378 C.ar    1  UNL1        0.0015
     29 C         140.9122  141.1695  165.3600 C.ar    1  UNL1        0.0184
     30 C         142.7178  139.2197  168.1580 C.3     1  UNL1        0.0298
     31 C         142.5001  140.1795  169.2900 C.3     1  UNL1        0.0292
     32 C         141.7461  141.4552  169.0572 C.3     1  UNL1        0.1064
     33 O         140.6263  145.6149  158.2883 O.3     1  UNL1       -0.4701
     34 C         140.8733  145.8690  156.8308 C.3     1  UNL1        0.2525
     35 N         144.5897  142.2565  158.3971 N.pl3   1  UNL1       -0.3033
     36 C         145.5569  142.6264  158.0456 C.3     1  UNL1        0.1123
     37 C         144.3722  140.8039  158.0927 C.3     1  UNL1        0.1082
     38 C         143.0469  140.1661  158.3875 C.3     1  UNL1        0.0938
     39 N         142.7864  139.5681  159.7382 N.3     1  UNL1       -0.2688
     40 C         141.4564  139.7673  160.4028 C.3     1  UNL1        0.0897
     41 C         143.8557  138.7709  160.4245 C.3     1  UNL1        0.0897
@<TRIPOS>BOND
     1    11    12    2
     2    12     7    1
     3     7     8    2
     4     7     9   am
     5     9     1    1
     6     1     2   ar
     7     2     3   ar
     8     3    13    1
     9    13    15    1
    10    15    16   ar
    11    16    17   ar
    12    17    18   ar
    13    18    19   ar
    14    19    21    1
    15    21    22   ar
    16    22    23   ar
    17    23    24   ar
    18    24    25   ar
    19    25    26   ar
    20    26    27   ar
    21    27    28   ar
    22    28    29   ar
    23    25    30    1
    24    30    31    1
    25    31    32    1
    26    19    20   ar
    27     3     4   ar
    28     4    33    1
    29    33    34    1
    30     4     5   ar
    31     5     6   ar
    32     6    35    1
    33    35    36    1
    34    35    37    1
    35    37    38    1
    36    38    39    1
    37    39    40    1
    38    39    41    1
    39     6     1   ar
    40    20    15   ar
    41    29    21   ar
    42    32    23    1
    43    29    24   ar
    44     9    10    1
    45    13    14    1
@<TRIPOS>MOLECULE
*****
 41 45 0 0 0
SMALL
GASTEIGER

@<TRIPOS>ATOM
      1 C         140.6985  143.5089  160.7815 C.ar    1  UNL1        0.0655
      2 C         139.7082  142.7034  161.5692 C.ar    1  UNL1        0.0337
      3 C         138.7270  141.8186  160.8591 C.ar    1  UNL1        0.0862
      4 C         138.7359  141.7392  159.3613 C.ar    1  UNL1        0.1534
      5 C         139.7261  142.5448  158.5735 C.ar    1  UNL1        0.0539
      6 C         140.7074  143.4296  159.2837 C.ar    1  UNL1        0.0647
      7 C         142.9452  143.8135  162.0502 C.2     1  UNL1        0.2497
      8 O         143.2660  142.7691  162.0056 O.2     1  UNL1       -0.2698
      9 N         141.6797  144.3937  161.4916 N.am    1  UNL1       -0.2794
     10 H         141.4932  145.3553  161.5911 H       1  UNL1        0.1552
     11 C         143.7395  145.0089  164.2158 C.2     1  UNL1        0.0048
     12 C         143.9264  144.6983  162.7603 C.2     1  UNL1        0.0580
     13 N         137.7367  141.0130  161.6469 N.pl3   1  UNL1       -0.2801
     14 H         136.7714  141.1490  161.5098 H       1  UNL1        0.1552
     15 C         138.2174  140.0002  162.6436 C.ar    1  UNL1        0.2207
     16 N         138.2415  138.5447  162.2817 N.ar    1  UNL1       -0.2120
     17 C         138.7222  137.5321  163.2784 C.ar    1  UNL1        0.1034
     18 C         139.1787  137.9748  164.6369 C.ar    1  UNL1        0.0400
     19 C         139.1545  139.4303  164.9988 C.ar    1  UNL1        0.0872
     20 N         138.6739  140.4430  164.0021 N.ar    1  UNL1       -0.2135
     21 C         139.6110  139.8730  166.3573 C.ar    1  UNL1        0.0364
     22 C         138.9249  139.5768  167.6579 C.ar    1  UNL1        0.0774
     23 N         139.7236  140.2104  168.7582 N.ar    1  UNL1       -0.3263
     24 C         140.9034  140.8983  168.1375 C.ar    1  UNL1        0.0559
     25 C         142.0321  141.6875  168.7318 C.ar    1  UNL1       -0.0063
     26 C         143.0911  142.2683  167.8423 C.ar    1  UNL1       -0.0028
     27 C         143.0215  142.0597  166.3586 C.ar    1  UNL1       -0.0002
     28 C         141.8928  141.2705  165.7643 C.ar    1  UNL1        0.0015
     29 C         140.8338  140.6897  166.6537 C.ar    1  UNL1        0.0184
     30 C         141.8492  141.7354  170.2267 C.3     1  UNL1        0.0298
     31 C         140.7236  141.0976  170.9859 C.3     1  UNL1        0.0292
     32 C         139.6609  140.3352  170.2516 C.3     1  UNL1        0.1064
     33 O         137.7547  140.8544  158.6512 O.3     1  UNL1       -0.4701
     34 C         137.4857  141.0547  157.1892 C.3     1  UNL1        0.2525
     35 N         141.6976  144.2351  158.4958 N.pl3   1  UNL1       -0.3033
     36 C         142.6457  143.8860  158.0774 C.3     1  UNL1        0.1123
     37 C         141.4288  145.6829  158.2100 C.3     1  UNL1        0.1082
     38 C         140.3620  146.0681  157.2283 C.3     1  UNL1        0.0938
     39 N         140.2692  145.3640  155.9071 N.3     1  UNL1       -0.2688
     40 C         141.3577  145.5333  154.8889 C.3     1  UNL1        0.0897
     41 C         139.0880  144.4907  155.6039 C.3     1  UNL1        0.0897
@<TRIPOS>BOND
     1    11    12    2
     2    12     7    1
     3     7     8    2
     4     7     9   am
     5     9     1    1
     6     1     2   ar
     7     2     3   ar
     8     3    13    1
     9    13    15    1
    10    15    16   ar
    11    16    17   ar
    12    17    18   ar
    13    18    19   ar
    14    19    21    1
    15    21    22   ar
    16    22    23   ar
    17    23    24   ar
    18    24    25   ar
    19    25    26   ar
    20    26    27   ar
    21    27    28   ar
    22    28    29   ar
    23    25    30    1
    24    30    31    1
    25    31    32    1
    26    19    20   ar
    27     3     4   ar
    28     4    33    1
    29    33    34    1
    30     4     5   ar
    31     5     6   ar
    32     6    35    1
    33    35    36    1
    34    35    37    1
    35    37    38    1
    36    38    39    1
    37    39    40    1
    38    39    41    1
    39     6     1   ar
    40    20    15   ar
    41    29    21   ar
    42    32    23    1
    43    29    24   ar
    44     9    10    1
    45    13    14    1
@<TRIPOS>MOLECULE
*****
 41 45 0 0 0
SMALL
GASTEIGER

@<TRIPOS>ATOM
      1 C         143.9744  141.3197  160.5461 C.ar    1  UNL1        0.0655
      2 C         143.4682  140.1852  161.3868 C.ar    1  UNL1        0.0337
      3 C         142.9606  138.9347  160.7321 C.ar    1  UNL1        0.0862
      4 C         142.9593  138.8186  159.2366 C.ar    1  UNL1        0.1534
      5 C         143.4655  139.9531  158.3959 C.ar    1  UNL1        0.0539
      6 C         143.9730  141.2035  159.0506 C.ar    1  UNL1        0.0647
      7 C         143.6168  143.3088  162.1787 C.2     1  UNL1        0.2497
      8 O         142.6055  143.0405  162.4962 O.2     1  UNL1       -0.2698
      9 N         144.4819  142.5701  161.2009 N.am    1  UNL1       -0.2794
     10 H         145.3827  142.9061  160.9888 H       1  UNL1        0.1552
     11 C         143.4149  145.1203  164.0301 C.2     1  UNL1        0.0048
     12 C         144.1244  144.5593  162.8335 C.2     1  UNL1        0.0580
     13 N         142.4544  137.8003  161.5728 N.pl3   1  UNL1       -0.2801
     14 H         142.9190  136.9324  161.5597 H       1  UNL1        0.1552
     15 C         141.2403  137.9882  162.4335 C.ar    1  UNL1        0.2207
     16 N         139.9118  137.4575  161.9825 N.ar    1  UNL1       -0.2120
     17 C         138.6978  137.6454  162.8432 C.ar    1  UNL1        0.1034
     18 C         138.8122  138.3641  164.1548 C.ar    1  UNL1        0.0400
     19 C         140.1407  138.8948  164.6058 C.ar    1  UNL1        0.0872
     20 N         141.3547  138.7069  163.7451 N.ar    1  UNL1       -0.2135
     21 C         140.2552  139.6135  165.9175 C.ar    1  UNL1        0.0364
     22 C         139.3186  139.4786  167.0814 C.ar    1  UNL1        0.0774
     23 N         139.8109  140.3749  168.1788 N.ar    1  UNL1       -0.3263
     24 C         141.0517  141.0638  167.6930 C.ar    1  UNL1        0.0559
     25 C         141.9670  142.0588  168.3428 C.ar    1  UNL1       -0.0063
     26 C         143.1569  142.5831  167.5950 C.ar    1  UNL1       -0.0028
     27 C         143.4315  142.1125  166.1975 C.ar    1  UNL1       -0.0002
     28 C         142.5162  141.1175  165.5478 C.ar    1  UNL1        0.0015
     29 C         141.3263  140.5931  166.2955 C.ar    1  UNL1        0.0184
     30 C         141.4548  142.3475  169.7301 C.3     1  UNL1        0.0298
     31 C         140.2327  141.7376  170.3502 C.3     1  UNL1        0.0292
     32 C         139.4107  140.7513  169.5745 C.3     1  UNL1        0.1064
     33 O         142.4518  137.5682  158.5818 O.3     1  UNL1       -0.4701
     34 C         141.3240  137.6426  157.5957 C.3     1  UNL1        0.2525
     35 N         144.4792  142.3379  158.2098 N.pl3   1  UNL1       -0.3033
     36 C         145.4899  142.4615  157.8109 C.3     1  UNL1        0.1123
     37 C         143.5595  143.4617  157.8341 C.3     1  UNL1        0.1082
     38 C         142.0742  143.2528  157.8508 C.3     1  UNL1        0.0938
     39 N         141.2917  143.5316  159.0998 N.3     1  UNL1       -0.2688
     40 C         141.3146  144.9022  159.7090 C.3     1  UNL1        0.0897
     41 C         140.4862  142.4399  159.7396 C.3     1  UNL1        0.0897
@<TRIPOS>BOND
     1    11    12    2
     2    12     7    1
     3     7     8    2
     4     7     9   am
     5     9     1    1
     6     1     2   ar
     7     2     3   ar
     8     3    13    1
     9    13    15    1
    10    15    16   ar
    11    16    17   ar
    12    17    18   ar
    13    18    19   ar
    14    19    21    1
    15    21    22   ar
    16    22    23   ar
    17    23    24   ar
    18    24    25   ar
    19    25    26   ar
    20    26    27   ar
    21    27    28   ar
    22    28    29   ar
    23    25    30    1
    24    30    31    1
    25    31    32    1
    26    19    20   ar
    27     3     4   ar
    28     4    33    1
    29    33    34    1
    30     4     5   ar
    31     5     6   ar
    32     6    35    1
    33    35    36    1
    34    35    37    1
    35    37    38    1
    36    38    39    1
    37    39    40    1
    38    39    41    1
    39     6     1   ar
    40    20    15   ar
    41    29    21   ar
    42    32    23    1
    43    29    24   ar
    44     9    10    1
    45    13    14    1
@<TRIPOS>MOLECULE
*****
 41 45 0 0 0
SMALL
GASTEIGER

@<TRIPOS>ATOM
      1 C         142.9158  139.8744  158.6957 C.ar    1  UNL1        0.0655
      2 C         143.8503  140.3765  159.7561 C.ar    1  UNL1        0.0337
      3 C         143.8445  139.7498  161.1189 C.ar    1  UNL1        0.0862
      4 C         142.9042  138.6210  161.4213 C.ar    1  UNL1        0.1534
      5 C         141.9696  138.1189  160.3609 C.ar    1  UNL1        0.0539
      6 C         141.9755  138.7456  158.9981 C.ar    1  UNL1        0.0647
      7 C         144.0017  140.1530  156.3519 C.2     1  UNL1        0.2497
      8 O         144.8346  139.4619  156.5079 O.2     1  UNL1       -0.2698
      9 N         142.9216  140.5012  157.3329 N.am    1  UNL1       -0.2794
     10 H         142.2166  141.1410  157.0823 H       1  UNL1        0.1552
     11 C         142.8675  141.6560  154.5618 C.2     1  UNL1        0.0048
     12 C         144.0075  140.7797  154.9892 C.2     1  UNL1        0.0580
     13 N         144.7791  140.2519  162.1793 N.pl3   1  UNL1       -0.2801
     14 H         145.6760  139.8567  162.2723 H       1  UNL1        0.1552
     15 C         144.3471  141.3561  163.0981 C.ar    1  UNL1        0.2207
     16 N         144.5744  142.7871  162.7097 N.ar    1  UNL1       -0.2120
     17 C         144.1425  143.8912  163.6285 C.ar    1  UNL1        0.1034
     18 C         143.4831  143.5645  164.9356 C.ar    1  UNL1        0.0400
     19 C         143.2558  142.1336  165.3240 C.ar    1  UNL1        0.0872
     20 N         143.6878  141.0295  164.4052 N.ar    1  UNL1       -0.2135
     21 C         142.5965  141.8069  166.6311 C.ar    1  UNL1        0.0364
     22 C         143.0963  142.1934  167.9916 C.ar    1  UNL1        0.0774
     23 N         142.1303  141.6617  169.0086 N.ar    1  UNL1       -0.3263
     24 C         141.0335  140.9466  168.2765 C.ar    1  UNL1        0.0559
     25 C         139.8096  140.2253  168.7581 C.ar    1  UNL1       -0.0063
     26 C         138.8739  139.5938  167.7705 C.ar    1  UNL1       -0.0028
     27 C         139.1621  139.6836  166.3012 C.ar    1  UNL1       -0.0002
     28 C         140.3859  140.4048  165.8196 C.ar    1  UNL1        0.0015
     29 C         141.3216  141.0364  166.8072 C.ar    1  UNL1        0.0184
     30 C         139.7741  140.2924  170.2630 C.3     1  UNL1        0.0298
     31 C         140.7960  140.9695  171.1276 C.3     1  UNL1        0.0292
     32 C         141.9741  141.6541  170.5004 C.3     1  UNL1        0.1064
     33 O         142.8984  137.9942  162.7841 O.3     1  UNL1       -0.4701
     34 C         141.5965  137.6794  163.4592 C.3     1  UNL1        0.2525
     35 N         141.0408  138.2434  157.9377 N.pl3   1  UNL1       -0.3033
     36 C         139.9984  138.5372  157.7864 C.3     1  UNL1        0.1123
     37 C         141.5141  137.2278  156.9405 C.3     1  UNL1        0.1082
     38 C         142.8612  136.5882  157.1030 C.3     1  UNL1        0.0938
     39 N         143.1353  135.2496  156.4842 N.3     1  UNL1       -0.2688
     40 C         143.3135  134.0424  157.3566 C.3     1  UNL1        0.0897
     41 C         143.2313  135.1181  154.9931 C.3     1  UNL1        0.0897
@<TRIPOS>BOND
     1    11    12    2
     2    12     7    1
     3     7     8    2
     4     7     9   am
     5     9     1    1
     6     1     2   ar
     7     2     3   ar
     8     3    13    1
     9    13    15    1
    10    15    16   ar
    11    16    17   ar
    12    17    18   ar
    13    18    19   ar
    14    19    21    1
    15    21    22   ar
    16    22    23   ar
    17    23    24   ar
    18    24    25   ar
    19    25    26   ar
    20    26    27   ar
    21    27    28   ar
    22    28    29   ar
    23    25    30    1
    24    30    31    1
    25    31    32    1
    26    19    20   ar
    27     3     4   ar
    28     4    33    1
    29    33    34    1
    30     4     5   ar
    31     5     6   ar
    32     6    35    1
    33    35    36    1
    34    35    37    1
    35    37    38    1
    36    38    39    1
    37    39    40    1
    38    39    41    1
    39     6     1   ar
    40    20    15   ar
    41    29    21   ar
    42    32    23    1
    43    29    24   ar
    44     9    10    1
    45    13    14    1
@<TRIPOS>MOLECULE
*****
 41 45 0 0 0
SMALL
GASTEIGER

@<TRIPOS>ATOM
      1 C         140.7325  143.5722  160.8334 C.ar    1  UNL1        0.0655
      2 C         139.7558  142.7100  161.5768 C.ar    1  UNL1        0.0337
      3 C         138.7184  141.9310  160.8239 C.ar    1  UNL1        0.0862
      4 C         138.6577  142.0141  159.3274 C.ar    1  UNL1        0.1534
      5 C         139.6344  142.8762  158.5840 C.ar    1  UNL1        0.0539
      6 C         140.6718  143.6552  159.3369 C.ar    1  UNL1        0.0647
      7 C         142.9869  143.6569  162.1220 C.2     1  UNL1        0.2497
      8 O         143.2325  142.5953  162.0308 O.2     1  UNL1       -0.2698
      9 N         141.7698  144.3512  161.5864 N.am    1  UNL1       -0.2794
     10 H         141.6519  145.3181  161.7291 H       1  UNL1        0.1552
     11 C         143.6474  145.1723  164.1263 C.2     1  UNL1        0.0048
     12 C         144.0242  144.4359  162.8749 C.2     1  UNL1        0.0580
     13 N         137.7417  141.0689  161.5673 N.pl3   1  UNL1       -0.2801
     14 H         136.7755  141.1685  161.4068 H       1  UNL1        0.1552
     15 C         138.2371  140.0548  162.5555 C.ar    1  UNL1        0.2207
     16 N         138.2684  138.6012  162.1866 N.ar    1  UNL1       -0.2120
     17 C         138.7638  137.5872  163.1747 C.ar    1  UNL1        0.1034
     18 C         139.2279  138.0268  164.5317 C.ar    1  UNL1        0.0400
     19 C         139.1966  139.4804  164.9006 C.ar    1  UNL1        0.0872
     20 N         138.7012  140.4944  163.9124 N.ar    1  UNL1       -0.2135
     21 C         139.6607  139.9200  166.2575 C.ar    1  UNL1        0.0364
     22 C         138.9901  139.6081  167.5626 C.ar    1  UNL1        0.0774
     23 N         139.7919  140.2440  168.6593 N.ar    1  UNL1       -0.3263
     24 C         140.9580  140.9489  168.0320 C.ar    1  UNL1        0.0559
     25 C         142.0832  141.7473  168.6208 C.ar    1  UNL1       -0.0063
     26 C         143.1273  142.3453  167.7252 C.ar    1  UNL1       -0.0028
     27 C         143.0462  142.1451  166.2409 C.ar    1  UNL1       -0.0002
     28 C         141.9210  141.3467  165.6521 C.ar    1  UNL1        0.0015
     29 C         140.8769  140.7487  166.5477 C.ar    1  UNL1        0.0184
     30 C         141.9137  141.7840  170.1175 C.3     1  UNL1        0.0298
     31 C         140.8025  141.1288  170.8832 C.3     1  UNL1        0.0292
     32 C         139.7416  140.3589  170.1540 C.3     1  UNL1        0.1064
     33 O         137.6204  141.2350  158.5744 O.3     1  UNL1       -0.4701
     34 C         137.9345  140.6882  157.2134 C.3     1  UNL1        0.2525
     35 N         141.6485  144.5174  158.5934 N.pl3   1  UNL1       -0.3033
     36 C         141.5435  145.5807  158.3608 C.3     1  UNL1        0.1123
     37 C         142.9304  143.9295  158.0824 C.3     1  UNL1        0.1082
     38 C         143.3343  142.5432  158.4889 C.3     1  UNL1        0.0938
     39 N         143.0443  141.3821  157.5847 N.3     1  UNL1       -0.2688
     40 C         142.3103  141.6009  156.2949 C.3     1  UNL1        0.0897
     41 C         143.4881  140.0021  157.9702 C.3     1  UNL1        0.0897
@<TRIPOS>BOND
     1    11    12    2
     2    12     7    1
     3     7     8    2
     4     7     9   am
     5     9     1    1
     6     1     2   ar
     7     2     3   ar
     8     3    13    1
     9    13    15    1
    10    15    16   ar
    11    16    17   ar
    12    17    18   ar
    13    18    19   ar
    14    19    21    1
    15    21    22   ar
    16    22    23   ar
    17    23    24   ar
    18    24    25   ar
    19    25    26   ar
    20    26    27   ar
    21    27    28   ar
    22    28    29   ar
    23    25    30    1
    24    30    31    1
    25    31    32    1
    26    19    20   ar
    27     3     4   ar
    28     4    33    1
    29    33    34    1
    30     4     5   ar
    31     5     6   ar
    32     6    35    1
    33    35    36    1
    34    35    37    1
    35    37    38    1
    36    38    39    1
    37    39    40    1
    38    39    41    1
    39     6     1   ar
    40    20    15   ar
    41    29    21   ar
    42    32    23    1
    43    29    24   ar
    44     9    10    1
    45    13    14    1
@<TRIPOS>MOLECULE
*****
 41 45 0 0 0
SMALL
GASTEIGER

@<TRIPOS>ATOM
      1 C         142.7593  139.9629  162.5649 C.ar    1  UNL1        0.0655
      2 C         143.1600  139.1709  161.3556 C.ar    1  UNL1        0.0337
      3 C         143.3591  139.8615  160.0390 C.ar    1  UNL1        0.0862
      4 C         143.1575  141.3439  159.9315 C.ar    1  UNL1        0.1534
      5 C         142.7569  142.1359  161.1408 C.ar    1  UNL1        0.0539
      6 C         142.5578  141.4454  162.4574 C.ar    1  UNL1        0.0647
      7 C         143.7233  139.0744  164.8079 C.2     1  UNL1        0.2497
      8 O         144.7582  139.3852  164.6407 O.2     1  UNL1       -0.2698
      9 N         142.5603  139.2723  163.8815 N.am    1  UNL1       -0.2794
     10 H         141.6663  138.9491  164.1376 H       1  UNL1        0.1552
     11 C         142.8566  139.1063  167.2570 C.2     1  UNL1        0.0048
     12 C         143.5242  138.3838  166.1245 C.2     1  UNL1        0.0580
     13 N         143.7597  139.0695  158.8297 N.pl3   1  UNL1       -0.2801
     14 H         144.7058  139.0262  158.5609 H       1  UNL1        0.1552
     15 C         142.7188  138.3434  158.0300 C.ar    1  UNL1        0.2207
     16 N         141.3259  138.8923  157.9379 N.ar    1  UNL1       -0.2120
     17 C         140.2851  138.1663  157.1382 C.ar    1  UNL1        0.1034
     18 C         140.6371  136.8914  156.4306 C.ar    1  UNL1        0.0400
     19 C         142.0301  136.3425  156.5227 C.ar    1  UNL1        0.0872
     20 N         143.0709  137.0686  157.3224 N.ar    1  UNL1       -0.2135
     21 C         142.3822  135.0677  155.8151 C.ar    1  UNL1        0.0364
     22 C         141.9017  134.6517  154.4563 C.ar    1  UNL1        0.0774
     23 N         142.4991  133.3119  154.1435 N.ar    1  UNL1       -0.3263
     24 C         143.3488  132.8998  155.3089 C.ar    1  UNL1        0.0559
     25 C         144.1790  131.6765  155.5629 C.ar    1  UNL1       -0.0063
     26 C         144.9369  131.5384  156.8499 C.ar    1  UNL1       -0.0028
     27 C         144.8646  132.6235  157.8830 C.ar    1  UNL1       -0.0002
     28 C         144.0344  133.8467  157.6290 C.ar    1  UNL1        0.0015
     29 C         143.2765  133.9849  156.3420 C.ar    1  UNL1        0.0184
     30 C         144.0677  130.7646  154.3686 C.3     1  UNL1        0.0298
     31 C         143.2594  131.0412  153.1356 C.3     1  UNL1        0.0292
     32 C         142.4751  132.3149  153.0231 C.3     1  UNL1        0.1064
     33 O         143.3566  142.0345  158.6149 O.3     1  UNL1       -0.4701
     34 C         144.6935  142.6208  158.2701 C.3     1  UNL1        0.2525
     35 N         142.1571  142.2374  163.6666 N.pl3   1  UNL1       -0.3033
     36 C         142.8225  142.7380  164.3755 C.3     1  UNL1        0.1123
     37 C         140.7058  142.4057  164.0060 C.3     1  UNL1        0.1082
     38 C         140.1596  143.7695  164.3087 C.3     1  UNL1        0.0938
     39 N         139.4314  144.5385  163.2465 N.3     1  UNL1       -0.2688
     40 C         140.1846  145.4756  162.3495 C.3     1  UNL1        0.0897
     41 C         137.9500  144.3704  163.0811 C.3     1  UNL1        0.0897
@<TRIPOS>BOND
     1    11    12    2
     2    12     7    1
     3     7     8    2
     4     7     9   am
     5     9     1    1
     6     1     2   ar
     7     2     3   ar
     8     3    13    1
     9    13    15    1
    10    15    16   ar
    11    16    17   ar
    12    17    18   ar
    13    18    19   ar
    14    19    21    1
    15    21    22   ar
    16    22    23   ar
    17    23    24   ar
    18    24    25   ar
    19    25    26   ar
    20    26    27   ar
    21    27    28   ar
    22    28    29   ar
    23    25    30    1
    24    30    31    1
    25    31    32    1
    26    19    20   ar
    27     3     4   ar
    28     4    33    1
    29    33    34    1
    30     4     5   ar
    31     5     6   ar
    32     6    35    1
    33    35    36    1
    34    35    37    1
    35    37    38    1
    36    38    39    1
    37    39    40    1
    38    39    41    1
    39     6     1   ar
    40    20    15   ar
    41    29    21   ar
    42    32    23    1
    43    29    24   ar
    44     9    10    1
    45    13    14    1
@<TRIPOS>MOLECULE
*****
 41 45 0 0 0
SMALL
GASTEIGER

@<TRIPOS>ATOM
      1 C         138.6065  140.3087  158.4451 C.ar    1  UNL1        0.0655
      2 C         138.0359  139.9772  159.7921 C.ar    1  UNL1        0.0337
      3 C         137.9050  141.0472  160.8351 C.ar    1  UNL1        0.0862
      4 C         138.3447  142.4487  160.5313 C.ar    1  UNL1        0.1534
      5 C         138.9154  142.7802  159.1842 C.ar    1  UNL1        0.0539
      6 C         139.0463  141.7102  158.1412 C.ar    1  UNL1        0.0647
      7 C         139.9051  138.2976  157.4354 C.2     1  UNL1        0.2497
      8 O         140.7217  138.2877  158.1625 O.2     1  UNL1       -0.2698
      9 N         138.7374  139.2387  157.4020 N.am    1  UNL1       -0.2794
     10 H         138.0570  139.1541  156.6955 H       1  UNL1        0.1552
     11 C         139.2939  137.3505  155.0946 C.2     1  UNL1        0.0048
     12 C         140.0359  137.2276  156.3924 C.2     1  UNL1        0.0580
     13 N         137.3343  140.7157  162.1822 N.pl3   1  UNL1       -0.2801
     14 H         136.4643  141.0883  162.4535 H       1  UNL1        0.1552
     15 C         138.0891  139.8164  163.1159 C.ar    1  UNL1        0.2207
     16 N         138.3276  138.3822  162.7467 N.ar    1  UNL1       -0.2120
     17 C         139.0824  137.4831  163.6804 C.ar    1  UNL1        0.1034
     18 C         139.5987  138.0181  164.9832 C.ar    1  UNL1        0.0400
     19 C         139.3602  139.4523  165.3523 C.ar    1  UNL1        0.0872
     20 N         138.6054  140.3514  164.4186 N.ar    1  UNL1       -0.2135
     21 C         139.8765  139.9872  166.6551 C.ar    1  UNL1        0.0364
     22 C         139.2566  139.7727  168.0040 C.ar    1  UNL1        0.0774
     23 N         140.1003  140.4836  169.0203 N.ar    1  UNL1       -0.3263
     24 C         141.2418  141.1374  168.2993 C.ar    1  UNL1        0.0559
     25 C         142.3893  141.9725  168.7851 C.ar    1  UNL1       -0.0063
     26 C         143.3984  142.5008  167.8092 C.ar    1  UNL1       -0.0028
     27 C         143.2600  142.1940  166.3474 C.ar    1  UNL1       -0.0002
     28 C         142.1126  141.3590  165.8616 C.ar    1  UNL1        0.0015
     29 C         141.1034  140.8307  166.8376 C.ar    1  UNL1        0.0184
     30 C         142.2776  142.1178  170.2807 C.3     1  UNL1        0.0298
     31 C         141.1964  141.5235  171.1338 C.3     1  UNL1        0.0292
     32 C         140.1078  140.7064  170.5036 C.3     1  UNL1        0.1064
     33 O         138.2138  143.5187  161.5743 O.3     1  UNL1       -0.4701
     34 C         139.4189  144.3054  161.9970 C.3     1  UNL1        0.2525
     35 N         139.6170  142.0417  156.7942 N.pl3   1  UNL1       -0.3033
     36 C         140.6719  142.0334  156.5062 C.3     1  UNL1        0.1123
     37 C         138.7057  142.4363  155.6699 C.3     1  UNL1        0.1082
     38 C         138.1781  141.3926  154.7306 C.3     1  UNL1        0.0938
     39 N         136.8720  140.7143  155.0204 N.3     1  UNL1       -0.2688
     40 C         135.9690  141.2519  156.0908 C.3     1  UNL1        0.0897
     41 C         136.4688  139.4984  154.2400 C.3     1  UNL1        0.0897
@<TRIPOS>BOND
     1    11    12    2
     2    12     7    1
     3     7     8    2
     4     7     9   am
     5     9     1    1
     6     1     2   ar
     7     2     3   ar
     8     3    13    1
     9    13    15    1
    10    15    16   ar
    11    16    17   ar
    12    17    18   ar
    13    18    19   ar
    14    19    21    1
    15    21    22   ar
    16    22    23   ar
    17    23    24   ar
    18    24    25   ar
    19    25    26   ar
    20    26    27   ar
    21    27    28   ar
    22    28    29   ar
    23    25    30    1
    24    30    31    1
    25    31    32    1
    26    19    20   ar
    27     3     4   ar
    28     4    33    1
    29    33    34    1
    30     4     5   ar
    31     5     6   ar
    32     6    35    1
    33    35    36    1
    34    35    37    1
    35    37    38    1
    36    38    39    1
    37    39    40    1
    38    39    41    1
    39     6     1   ar
    40    20    15   ar
    41    29    21   ar
    42    32    23    1
    43    29    24   ar
    44     9    10    1
    45    13    14    1
@<TRIPOS>MOLECULE
*****
 41 45 0 0 0
SMALL
GASTEIGER

@<TRIPOS>ATOM
      1 C         141.5923  137.9245  161.6654 C.ar    1  UNL1        0.0655
      2 C         142.5995  137.8863  160.5545 C.ar    1  UNL1        0.0337
      3 C         142.2017  138.2948  159.1671 C.ar    1  UNL1        0.0862
      4 C         140.7968  138.7415  158.8905 C.ar    1  UNL1        0.1534
      5 C         139.7896  138.7796  160.0014 C.ar    1  UNL1        0.0539
      6 C         140.1874  138.3712  161.3888 C.ar    1  UNL1        0.0647
      7 C         142.5166  138.5401  164.0142 C.2     1  UNL1        0.2497
      8 O         142.6570  139.6081  163.8264 O.2     1  UNL1       -0.2698
      9 N         141.9901  137.5160  163.0528 N.am    1  UNL1       -0.2794
     10 H         141.9057  136.5758  163.3324 H       1  UNL1        0.1552
     11 C         142.8024  139.1104  166.5327 C.2     1  UNL1        0.0048
     12 C         142.9143  138.1316  165.4016 C.2     1  UNL1        0.0580
     13 N         143.2089  138.2566  158.0562 N.pl3   1  UNL1       -0.2801
     14 H         144.0558  138.7513  158.1423 H       1  UNL1        0.1552
     15 C         142.9259  137.4647  156.8141 C.ar    1  UNL1        0.2207
     16 N         142.7729  138.1652  155.4965 N.ar    1  UNL1       -0.2120
     17 C         142.4899  137.3732  154.2545 C.ar    1  UNL1        0.1034
     18 C         142.3598  135.8808  154.3300 C.ar    1  UNL1        0.0400
     19 C         142.5128  135.1803  155.6475 C.ar    1  UNL1        0.0872
     20 N         142.7958  135.9722  156.8895 N.ar    1  UNL1       -0.2135
     21 C         142.3827  133.6878  155.7229 C.ar    1  UNL1        0.0364
     22 C         141.3414  132.8576  155.0328 C.ar    1  UNL1        0.0774
     23 N         141.5862  131.4202  155.3851 N.ar    1  UNL1       -0.3263
     24 C         142.7789  131.3622  156.2930 C.ar    1  UNL1        0.0559
     25 C         143.4803  130.2143  156.9565 C.ar    1  UNL1       -0.0063
     26 C         144.6740  130.4678  157.8288 C.ar    1  UNL1       -0.0028
     27 C         145.1662  131.8692  158.0376 C.ar    1  UNL1       -0.0002
     28 C         144.4648  133.0172  157.3741 C.ar    1  UNL1        0.0015
     29 C         143.2712  132.7637  156.5018 C.ar    1  UNL1        0.0184
     30 C         142.7779  128.9372  156.5745 C.3     1  UNL1        0.0298
     31 C         141.5781  128.8389  155.6795 C.3     1  UNL1        0.0292
     32 C         140.9823  130.0804  155.0848 C.3     1  UNL1        0.1064
     33 O         140.3990  139.1500  157.5031 O.3     1  UNL1       -0.4701
     34 C         140.3692  140.6021  157.1284 C.3     1  UNL1        0.2525
     35 N         139.1801  138.4094  162.4997 N.pl3   1  UNL1       -0.3033
     36 C         138.4953  137.6095  162.7949 C.3     1  UNL1        0.1123
     37 C         139.0376  139.6431  163.3409 C.3     1  UNL1        0.1082
     38 C         138.1760  140.7769  162.8696 C.3     1  UNL1        0.0938
     39 N         138.7148  142.1767  162.8656 N.3     1  UNL1       -0.2688
     40 C         140.1886  142.4136  163.0129 C.3     1  UNL1        0.0897
     41 C         137.7797  143.3399  162.7144 C.3     1  UNL1        0.0897
@<TRIPOS>BOND
     1    11    12    2
     2    12     7    1
     3     7     8    2
     4     7     9   am
     5     9     1    1
     6     1     2   ar
     7     2     3   ar
     8     3    13    1
     9    13    15    1
    10    15    16   ar
    11    16    17   ar
    12    17    18   ar
    13    18    19   ar
    14    19    21    1
    15    21    22   ar
    16    22    23   ar
    17    23    24   ar
    18    24    25   ar
    19    25    26   ar
    20    26    27   ar
    21    27    28   ar
    22    28    29   ar
    23    25    30    1
    24    30    31    1
    25    31    32    1
    26    19    20   ar
    27     3     4   ar
    28     4    33    1
    29    33    34    1
    30     4     5   ar
    31     5     6   ar
    32     6    35    1
    33    35    36    1
    34    35    37    1
    35    37    38    1
    36    38    39    1
    37    39    40    1
    38    39    41    1
    39     6     1   ar
    40    20    15   ar
    41    29    21   ar
    42    32    23    1
    43    29    24   ar
    44     9    10    1
    45    13    14    1
@<TRIPOS>MOLECULE
*****
 41 45 0 0 0
SMALL
GASTEIGER

@<TRIPOS>ATOM
      1 C         141.7738  138.7248  161.8463 C.ar    1  UNL1        0.0655
      2 C         141.3761  138.3816  160.4413 C.ar    1  UNL1        0.0337
      3 C         141.9465  139.1557  159.2900 C.ar    1  UNL1        0.0862
      4 C         142.9146  140.2730  159.5437 C.ar    1  UNL1        0.1534
      5 C         143.3123  140.6162  160.9487 C.ar    1  UNL1        0.0539
      6 C         142.7419  139.8420  162.0999 C.ar    1  UNL1        0.0647
      7 C         139.9274  138.4006  163.6451 C.2     1  UNL1        0.2497
      8 O         139.3221  139.2697  163.3729 O.2     1  UNL1       -0.2698
      9 N         141.2035  137.9506  162.9975 N.am    1  UNL1       -0.2794
     10 H         141.6666  137.1472  163.3282 H       1  UNL1        0.1552
     11 C         138.4584  138.3071  165.7859 C.2     1  UNL1        0.0048
     12 C         139.3571  137.6265  164.7963 C.2     1  UNL1        0.0580
     13 N         141.5487  138.8126  157.8850 N.pl3   1  UNL1       -0.2801
     14 H         140.7186  139.1806  157.5046 H       1  UNL1        0.1552
     15 C         142.4158  137.9086  157.0596 C.ar    1  UNL1        0.2207
     16 N         143.6393  138.4539  156.3846 N.ar    1  UNL1       -0.2120
     17 C         144.5062  137.5499  155.5593 C.ar    1  UNL1        0.1034
     18 C         144.1497  136.1007  155.4089 C.ar    1  UNL1        0.0400
     19 C         142.9261  135.5554  156.0839 C.ar    1  UNL1        0.0872
     20 N         142.0592  136.4593  156.9092 N.ar    1  UNL1       -0.2135
     21 C         142.5696  134.1062  155.9335 C.ar    1  UNL1        0.0364
     22 C         141.4245  133.5582  155.1344 C.ar    1  UNL1        0.0774
     23 N         141.4428  132.0639  155.2629 N.ar    1  UNL1       -0.3263
     24 C         142.5992  131.6883  156.1414 C.ar    1  UNL1        0.0559
     25 C         143.1079  130.3599  156.6175 C.ar    1  UNL1       -0.0063
     26 C         144.3131  130.2938  157.5081 C.ar    1  UNL1       -0.0028
     27 C         145.0095  131.5560  157.9225 C.ar    1  UNL1       -0.0002
     28 C         144.5007  132.8843  157.4464 C.ar    1  UNL1        0.0015
     29 C         143.2955  132.9505  156.5559 C.ar    1  UNL1        0.0184
     30 C         142.2253  129.2774  156.0524 C.3     1  UNL1        0.0298
     31 C         141.0380  129.4994  155.1629 C.3     1  UNL1        0.0292
     32 C         140.6467  130.8927  154.7682 C.3     1  UNL1        0.1064
     33 O         143.4849  141.0471  158.3924 O.3     1  UNL1       -0.4701
     34 C         142.8539  142.3417  157.9732 C.3     1  UNL1        0.2525
     35 N         143.1398  140.1853  163.5049 N.pl3   1  UNL1       -0.3033
     36 C         143.9951  139.7922  164.0614 C.3     1  UNL1        0.1123
     37 C         142.3261  141.1656  164.2967 C.3     1  UNL1        0.1082
     38 C         142.4102  142.6314  163.9892 C.3     1  UNL1        0.0938
     39 N         143.7433  143.3189  163.9733 N.3     1  UNL1       -0.2688
     40 C         144.5096  143.4991  165.2501 C.3     1  UNL1        0.0897
     41 C         144.3101  143.8263  162.6805 C.3     1  UNL1        0.0897
@<TRIPOS>BOND
     1    11    12    2
     2    12     7    1
     3     7     8    2
     4     7     9   am
     5     9     1    1
     6     1     2   ar
     7     2     3   ar
     8     3    13    1
     9    13    15    1
    10    15    16   ar
    11    16    17   ar
    12    17    18   ar
    13    18    19   ar
    14    19    21    1
    15    21    22   ar
    16    22    23   ar
    17    23    24   ar
    18    24    25   ar
    19    25    26   ar
    20    26    27   ar
    21    27    28   ar
    22    28    29   ar
    23    25    30    1
    24    30    31    1
    25    31    32    1
    26    19    20   ar
    27     3     4   ar
    28     4    33    1
    29    33    34    1
    30     4     5   ar
    31     5     6   ar
    32     6    35    1
    33    35    36    1
    34    35    37    1
    35    37    38    1
    36    38    39    1
    37    39    40    1
    38    39    41    1
    39     6     1   ar
    40    20    15   ar
    41    29    21   ar
    42    32    23    1
    43    29    24   ar
    44     9    10    1
    45    13    14    1
