@<TRIPOS>MOLECULE
*****
 34 36 0 0 0
SMALL
GASTEIGER

@<TRIPOS>ATOM
      1 N         143.3350  140.5318  164.3807 N.am    1  UNL1       -0.3005
      2 C         143.5060  140.5786  162.8912 C.2     1  UNL1        0.2474
      3 O         144.1674  139.4379  162.1761 O.2     1  UNL1       -0.2701
      4 H         142.9008  141.2805  164.8501 H       1  UNL1        0.1498
      5 C         143.0156  141.7659  162.1169 C.ar    1  UNL1        0.0727
      6 C         141.9650  141.5907  161.0607 C.ar    1  UNL1        0.0109
      7 C         141.4745  142.7780  160.2863 C.ar    1  UNL1        0.0579
      8 C         142.0347  144.1407  160.5682 C.ar    1  UNL1        0.2249
      9 N         143.0852  144.3160  161.6244 N.ar    1  UNL1       -0.2100
     10 C         143.5757  143.1286  162.3988 C.ar    1  UNL1        0.1065
     11 O         141.5442  145.3280  159.7939 O.3     1  UNL1       -0.4575
     12 C         140.1828  145.8938  160.0708 C.3     1  UNL1        0.2390
     13 C         139.7795  146.2235  161.4774 C.3     1  UNL1        0.1897
     14 O         138.8001  145.3481  162.2016 O.3     1  UNL1       -0.3417
     15 C         139.1718  144.7382  163.5206 C.3     1  UNL1        0.2459
     16 C         138.2672  143.7276  164.1611 C.3     1  UNL1        0.4248
     17 F         137.3626  142.7168  164.8015 F       1  UNL1       -0.1674
     18 F         137.2921  143.8849  163.0322 F       1  UNL1       -0.1674
     19 F         139.2423  143.5702  165.2899 F       1  UNL1       -0.1674
     20 C         143.8254  139.3444  165.1551 C.3     1  UNL1        0.0944
     21 C         142.8722  138.5574  166.0047 C.3     1  UNL1        0.0476
     22 C         140.6293  139.6400  166.7444 C.ar    1  UNL1       -0.0009
     23 C         139.8036  140.3351  167.7861 C.ar    1  UNL1       -0.0002
     24 C         140.3952  140.6426  169.1298 C.ar    1  UNL1       -0.0000
     25 C         141.8124  140.2551  169.4318 C.ar    1  UNL1       -0.0003
     26 C         142.6380  139.5600  168.3901 C.ar    1  UNL1       -0.0042
     27 C         142.0465  139.2525  167.0464 C.ar    1  UNL1       -0.0204
     28 C         138.2630  138.4100  161.3697 C.3     1  UNL1        0.0737
     29 C         138.8546  138.7175  162.7133 C.ar    1  UNL1        0.1396
     30 N         138.9247  137.6494  163.7642 N.ar    1  UNL1       -0.2291
     31 C         139.5163  137.9569  165.1078 C.ar    1  UNL1        0.1017
     32 C         140.0377  139.3325  165.4007 C.ar    1  UNL1        0.0380
     33 C         139.9675  140.4006  164.3499 C.ar    1  UNL1        0.1017
     34 N         139.3760  140.0931  163.0062 N.ar    1  UNL1       -0.2291
@<TRIPOS>BOND
     1    28    29    1
     2    29    30   ar
     3    30    31   ar
     4    31    32   ar
     5    32    22    1
     6    22    23   ar
     7    23    24   ar
     8    24    25   ar
     9    25    26   ar
    10    26    27   ar
    11    27    21    1
    12    21    20    1
    13    20     1    1
    14     1     2   am
    15     2     3    2
    16     2     5    1
    17     5     6   ar
    18     6     7   ar
    19     7     8   ar
    20     8    11    1
    21    11    12    1
    22    12    13    1
    23    13    14    1
    24    14    15    1
    25    15    16    1
    26    16    17    1
    27    16    18    1
    28    16    19    1
    29     8     9   ar
    30     9    10   ar
    31    32    33   ar
    32    33    34   ar
    33    34    29   ar
    34    27    22   ar
    35    10     5   ar
    36     1     4    1
@<TRIPOS>MOLECULE
*****
 34 36 0 0 0
SMALL
GASTEIGER

@<TRIPOS>ATOM
      1 N         143.8350  139.9901  163.7587 N.am    1  UNL1       -0.3005
      2 C         144.5076  141.2863  163.4157 C.2     1  UNL1        0.2474
      3 O         145.8219  141.6391  164.0466 O.2     1  UNL1       -0.2701
      4 H         142.9723  139.7586  163.3447 H       1  UNL1        0.1498
      5 C         143.8658  142.2295  162.4420 C.ar    1  UNL1        0.0727
      6 C         143.3731  143.5677  162.9076 C.ar    1  UNL1        0.0109
      7 C         142.7313  144.5109  161.9338 C.ar    1  UNL1        0.0579
      8 C         142.5822  144.1161  160.4943 C.ar    1  UNL1        0.2249
      9 N         143.0749  142.7781  160.0287 N.ar    1  UNL1       -0.2100
     10 C         143.7167  141.8347  161.0025 C.ar    1  UNL1        0.1065
     11 O         141.9404  145.0594  159.5205 O.3     1  UNL1       -0.4575
     12 C         140.4524  145.0442  159.3312 C.3     1  UNL1        0.2390
     13 C         139.5874  144.2362  160.2524 C.3     1  UNL1        0.1897
     14 O         139.1289  144.8205  161.5557 O.3     1  UNL1       -0.3417
     15 C         139.3422  144.0639  162.8332 C.3     1  UNL1        0.2459
     16 C         138.8954  144.6539  164.1378 C.3     1  UNL1        0.4248
     17 F         138.4485  145.2439  165.4425 F       1  UNL1       -0.1674
     18 F         137.4644  144.4215  163.7528 F       1  UNL1       -0.1674
     19 F         140.3263  144.8863  164.5228 F       1  UNL1       -0.1674
     20 C         144.4768  139.0468  164.7326 C.3     1  UNL1        0.0944
     21 C         143.6466  138.3802  165.7891 C.3     1  UNL1        0.0476
     22 C         141.4224  139.4466  166.6049 C.ar    1  UNL1       -0.0009
     23 C         139.9260  139.5334  166.5487 C.ar    1  UNL1       -0.0002
     24 C         139.1573  138.6404  165.6203 C.ar    1  UNL1       -0.0000
     25 C         139.8851  137.6607  164.7482 C.ar    1  UNL1       -0.0003
     26 C         141.3815  137.5740  164.8045 C.ar    1  UNL1       -0.0042
     27 C         142.1501  138.4669  165.7329 C.ar    1  UNL1       -0.0204
     28 C         144.4970  143.0184  170.3184 C.3     1  UNL1        0.0737
     29 C         143.7283  142.1254  169.3900 C.ar    1  UNL1        0.1396
     30 N         143.2858  140.7681  169.8501 N.ar    1  UNL1       -0.2291
     31 C         142.5172  139.8752  168.9218 C.ar    1  UNL1        0.1017
     32 C         142.1910  140.3396  167.5333 C.ar    1  UNL1        0.0380
     33 C         142.6335  141.6969  167.0732 C.ar    1  UNL1        0.1017
     34 N         143.4022  142.5898  168.0015 N.ar    1  UNL1       -0.2291
@<TRIPOS>BOND
     1    28    29    1
     2    29    30   ar
     3    30    31   ar
     4    31    32   ar
     5    32    22    1
     6    22    23   ar
     7    23    24   ar
     8    24    25   ar
     9    25    26   ar
    10    26    27   ar
    11    27    21    1
    12    21    20    1
    13    20     1    1
    14     1     2   am
    15     2     3    2
    16     2     5    1
    17     5     6   ar
    18     6     7   ar
    19     7     8   ar
    20     8    11    1
    21    11    12    1
    22    12    13    1
    23    13    14    1
    24    14    15    1
    25    15    16    1
    26    16    17    1
    27    16    18    1
    28    16    19    1
    29     8     9   ar
    30     9    10   ar
    31    32    33   ar
    32    33    34   ar
    33    34    29   ar
    34    27    22   ar
    35    10     5   ar
    36     1     4    1
@<TRIPOS>MOLECULE
*****
 34 36 0 0 0
SMALL
GASTEIGER

@<TRIPOS>ATOM
      1 N         139.7267  138.6980  163.8037 N.am    1  UNL1       -0.3005
      2 C         141.1362  138.2153  163.6298 C.2     1  UNL1        0.2474
      3 O         141.7775  137.3739  164.6932 O.2     1  UNL1       -0.2701
      4 H         139.3059  139.2503  163.1057 H       1  UNL1        0.1498
      5 C         141.9045  138.5740  162.3924 C.ar    1  UNL1        0.0727
      6 C         143.3955  138.7268  162.4532 C.ar    1  UNL1        0.0109
      7 C         144.1637  139.0855  161.2159 C.ar    1  UNL1        0.0579
      8 C         143.4411  139.2914  159.9177 C.ar    1  UNL1        0.2249
      9 N         141.9501  139.1387  159.8568 N.ar    1  UNL1       -0.2100
     10 C         141.1818  138.7800  161.0942 C.ar    1  UNL1        0.1065
     11 O         144.2093  139.6502  158.6803 O.3     1  UNL1       -0.4575
     12 C         144.1825  141.0577  158.1625 C.3     1  UNL1        0.2390
     13 C         144.4108  142.2062  159.1000 C.3     1  UNL1        0.1897
     14 O         143.2595  142.7924  159.8623 O.3     1  UNL1       -0.3417
     15 C         143.3106  142.8648  161.3596 C.3     1  UNL1        0.2459
     16 C         142.2065  142.2634  162.1777 C.3     1  UNL1        0.4248
     17 F         141.1023  141.6619  162.9957 F       1  UNL1       -0.1674
     18 F         141.3456  142.1775  160.9524 F       1  UNL1       -0.1674
     19 F         143.0675  142.3493  163.4029 F       1  UNL1       -0.1674
     20 C         138.9584  138.3393  165.0411 C.3     1  UNL1        0.0944
     21 C         138.4411  139.4208  165.9426 C.3     1  UNL1        0.0476
     22 C         139.9789  141.4550  166.4402 C.ar    1  UNL1       -0.0009
     23 C         140.3629  142.8839  166.1942 C.ar    1  UNL1       -0.0002
     24 C         139.5934  143.7077  165.2047 C.ar    1  UNL1       -0.0000
     25 C         138.4398  143.1026  164.4611 C.ar    1  UNL1       -0.0003
     26 C         138.0557  141.6736  164.7071 C.ar    1  UNL1       -0.0042
     27 C         138.8252  140.8498  165.6966 C.ar    1  UNL1       -0.0204
     28 C         143.0570  138.1598  170.3984 C.3     1  UNL1        0.0737
     29 C         142.2874  138.9836  169.4088 C.ar    1  UNL1        0.1396
     30 N         142.8430  139.2186  168.0355 N.ar    1  UNL1       -0.2291
     31 C         142.0735  140.0424  167.0460 C.ar    1  UNL1        0.1017
     32 C         140.7484  140.6312  167.4298 C.ar    1  UNL1        0.0380
     33 C         140.1928  140.3962  168.8031 C.ar    1  UNL1        0.1017
     34 N         140.9623  139.5724  169.7926 N.ar    1  UNL1       -0.2291
@<TRIPOS>BOND
     1    28    29    1
     2    29    30   ar
     3    30    31   ar
     4    31    32   ar
     5    32    22    1
     6    22    23   ar
     7    23    24   ar
     8    24    25   ar
     9    25    26   ar
    10    26    27   ar
    11    27    21    1
    12    21    20    1
    13    20     1    1
    14     1     2   am
    15     2     3    2
    16     2     5    1
    17     5     6   ar
    18     6     7   ar
    19     7     8   ar
    20     8    11    1
    21    11    12    1
    22    12    13    1
    23    13    14    1
    24    14    15    1
    25    15    16    1
    26    16    17    1
    27    16    18    1
    28    16    19    1
    29     8     9   ar
    30     9    10   ar
    31    32    33   ar
    32    33    34   ar
    33    34    29   ar
    34    27    22   ar
    35    10     5   ar
    36     1     4    1
@<TRIPOS>MOLECULE
*****
 34 36 0 0 0
SMALL
GASTEIGER

@<TRIPOS>ATOM
      1 N         139.9522  137.9805  164.0423 N.am    1  UNL1       -0.3005
      2 C         139.4682  137.9937  162.6226 C.2     1  UNL1        0.2474
      3 O         138.0006  137.8921  162.3295 O.2     1  UNL1       -0.2701
      4 H         140.9154  138.0472  164.2346 H       1  UNL1        0.1498
      5 C         140.4518  138.1085  161.4960 C.ar    1  UNL1        0.0727
      6 C         139.9961  138.5828  160.1479 C.ar    1  UNL1        0.0109
      7 C         140.9797  138.6976  159.0213 C.ar    1  UNL1        0.0579
      8 C         142.4191  138.3381  159.2427 C.ar    1  UNL1        0.2249
      9 N         142.8748  137.8638  160.5908 N.ar    1  UNL1       -0.2100
     10 C         141.8912  137.7490  161.7175 C.ar    1  UNL1        0.1065
     11 O         143.4027  138.4529  158.1161 O.3     1  UNL1       -0.4575
     12 C         142.9474  138.2585  156.7001 C.3     1  UNL1        0.2390
     13 C         142.9601  136.8884  156.0897 C.3     1  UNL1        0.1897
     14 O         143.9738  135.8773  156.5370 O.3     1  UNL1       -0.3417
     15 C         143.7153  134.4143  156.3309 C.3     1  UNL1        0.2459
     16 C         144.2478  133.4130  157.3126 C.3     1  UNL1        0.4248
     17 F         144.7804  132.4117  158.2944 F       1  UNL1       -0.1674
     18 F         143.6839  134.2215  158.4432 F       1  UNL1       -0.1674
     19 F         144.8118  132.6045  156.1821 F       1  UNL1       -0.1674
     20 C         138.9685  137.8657  165.1690 C.3     1  UNL1        0.0944
     21 C         138.2668  139.0892  165.6795 C.3     1  UNL1        0.0476
     22 C         139.4932  141.3777  165.7732 C.ar    1  UNL1       -0.0009
     23 C         140.2561  142.4119  166.5466 C.ar    1  UNL1       -0.0002
     24 C         140.5554  142.1921  167.9999 C.ar    1  UNL1       -0.0000
     25 C         140.0918  140.9380  168.6797 C.ar    1  UNL1       -0.0003
     26 C         139.3290  139.9037  167.9063 C.ar    1  UNL1       -0.0042
     27 C         139.0297  140.1235  166.4530 C.ar    1  UNL1       -0.0204
     28 C         138.2960  142.2571  159.9600 C.3     1  UNL1        0.0737
     29 C         138.5953  142.0372  161.4133 C.ar    1  UNL1        0.1396
     30 N         139.9978  141.7387  161.8533 N.ar    1  UNL1       -0.2291
     31 C         140.2971  141.5188  163.3066 C.ar    1  UNL1        0.1017
     32 C         139.1939  141.5975  164.3199 C.ar    1  UNL1        0.0380
     33 C         137.7914  141.8961  163.8798 C.ar    1  UNL1        0.1017
     34 N         137.4921  142.1159  162.4265 N.ar    1  UNL1       -0.2291
@<TRIPOS>BOND
     1    28    29    1
     2    29    30   ar
     3    30    31   ar
     4    31    32   ar
     5    32    22    1
     6    22    23   ar
     7    23    24   ar
     8    24    25   ar
     9    25    26   ar
    10    26    27   ar
    11    27    21    1
    12    21    20    1
    13    20     1    1
    14     1     2   am
    15     2     3    2
    16     2     5    1
    17     5     6   ar
    18     6     7   ar
    19     7     8   ar
    20     8    11    1
    21    11    12    1
    22    12    13    1
    23    13    14    1
    24    14    15    1
    25    15    16    1
    26    16    17    1
    27    16    18    1
    28    16    19    1
    29     8     9   ar
    30     9    10   ar
    31    32    33   ar
    32    33    34   ar
    33    34    29   ar
    34    27    22   ar
    35    10     5   ar
    36     1     4    1
@<TRIPOS>MOLECULE
*****
 34 36 0 0 0
SMALL
GASTEIGER

@<TRIPOS>ATOM
      1 N         138.9402  143.8786  162.1701 N.am    1  UNL1       -0.3005
      2 C         138.1059  142.6473  161.9758 C.2     1  UNL1        0.2474
      3 O         137.0677  142.2766  162.9930 O.2     1  UNL1       -0.2701
      4 H         139.6216  144.1219  161.5024 H       1  UNL1        0.1498
      5 C         138.3099  141.7867  160.7643 C.ar    1  UNL1        0.0727
      6 C         138.9842  142.3504  159.5488 C.ar    1  UNL1        0.0109
      7 C         139.1882  141.4897  158.3373 C.ar    1  UNL1        0.0579
      8 C         138.7178  140.0654  158.3413 C.ar    1  UNL1        0.2249
      9 N         138.0435  139.5017  159.5568 N.ar    1  UNL1       -0.2100
     10 C         137.8395  140.3623  160.7684 C.ar    1  UNL1        0.1065
     11 O         138.9218  139.2048  157.1299 O.3     1  UNL1       -0.4575
     12 C         140.3054  138.7797  156.7362 C.3     1  UNL1        0.2390
     13 C         141.3362  138.5103  157.7920 C.3     1  UNL1        0.1897
     14 O         142.2659  139.6036  158.2288 O.3     1  UNL1       -0.3417
     15 C         142.7242  139.6730  159.6553 C.3     1  UNL1        0.2459
     16 C         142.1976  140.7466  160.5609 C.3     1  UNL1        0.4248
     17 F         141.6709  141.8202  161.4664 F       1  UNL1       -0.1674
     18 F         141.0645  139.8504  160.9644 F       1  UNL1       -0.1674
     19 F         143.3307  141.6427  160.1573 F       1  UNL1       -0.1674
     20 C         138.7363  144.7393  163.3816 C.3     1  UNL1        0.0944
     21 C         139.6573  144.6085  164.5582 C.3     1  UNL1        0.0476
     22 C         141.6494  142.9440  164.6649 C.ar    1  UNL1       -0.0009
     23 C         143.1028  142.6420  164.4498 C.ar    1  UNL1       -0.0002
     24 C         144.0176  143.7025  163.9126 C.ar    1  UNL1       -0.0000
     25 C         143.4790  145.0649  163.5907 C.ar    1  UNL1       -0.0003
     26 C         142.0256  145.3669  163.8059 C.ar    1  UNL1       -0.0042
     27 C         141.1108  144.3064  164.3430 C.ar    1  UNL1       -0.0204
     28 C         137.9900  138.7022  166.8135 C.3     1  UNL1        0.0737
     29 C         138.9048  139.7626  166.2763 C.ar    1  UNL1        0.1396
     30 N         139.1358  139.8758  164.7986 N.ar    1  UNL1       -0.2291
     31 C         140.0506  140.9362  164.2614 C.ar    1  UNL1        0.1017
     32 C         140.7345  141.8835  165.2021 C.ar    1  UNL1        0.0380
     33 C         140.5036  141.7704  166.6798 C.ar    1  UNL1        0.1017
     34 N         139.5887  140.7100  167.2170 N.ar    1  UNL1       -0.2291
@<TRIPOS>BOND
     1    28    29    1
     2    29    30   ar
     3    30    31   ar
     4    31    32   ar
     5    32    22    1
     6    22    23   ar
     7    23    24   ar
     8    24    25   ar
     9    25    26   ar
    10    26    27   ar
    11    27    21    1
    12    21    20    1
    13    20     1    1
    14     1     2   am
    15     2     3    2
    16     2     5    1
    17     5     6   ar
    18     6     7   ar
    19     7     8   ar
    20     8    11    1
    21    11    12    1
    22    12    13    1
    23    13    14    1
    24    14    15    1
    25    15    16    1
    26    16    17    1
    27    16    18    1
    28    16    19    1
    29     8     9   ar
    30     9    10   ar
    31    32    33   ar
    32    33    34   ar
    33    34    29   ar
    34    27    22   ar
    35    10     5   ar
    36     1     4    1
@<TRIPOS>MOLECULE
*****
 34 36 0 0 0
SMALL
GASTEIGER

@<TRIPOS>ATOM
      1 N         142.7374  144.2300  163.0966 N.am    1  UNL1       -0.3005
      2 C         141.2434  144.3579  163.0600 C.2     1  UNL1        0.2474
      3 O         140.5166  144.9919  164.2089 O.2     1  UNL1       -0.2701
      4 H         143.2144  143.8139  162.3426 H       1  UNL1        0.1498
      5 C         140.4761  143.8518  161.8747 C.ar    1  UNL1        0.0727
      6 C         141.1530  143.7235  160.5422 C.ar    1  UNL1        0.0109
      7 C         140.3858  143.2174  159.3568 C.ar    1  UNL1        0.0579
      8 C         138.9416  142.8396  159.5039 C.ar    1  UNL1        0.2249
      9 N         138.2647  142.9678  160.8362 N.ar    1  UNL1       -0.2100
     10 C         139.0320  143.4739  162.0217 C.ar    1  UNL1        0.1065
     11 O         138.1744  142.3334  158.3185 O.3     1  UNL1       -0.4575
     12 C         138.0473  140.8576  158.0818 C.3     1  UNL1        0.2390
     13 C         138.9344  139.9003  158.8210 C.3     1  UNL1        0.1897
     14 O         138.4503  139.2518  160.0840 O.3     1  UNL1       -0.3417
     15 C         139.4345  138.8211  161.1308 C.3     1  UNL1        0.2459
     16 C         138.9782  137.9875  162.2914 C.3     1  UNL1        0.4248
     17 F         138.5220  137.1539  163.4521 F       1  UNL1       -0.1674
     18 F         140.3506  137.3928  162.4038 F       1  UNL1       -0.1674
     19 F         137.6058  138.5822  162.1790 F       1  UNL1       -0.1674
     20 C         143.5048  144.7361  164.2820 C.3     1  UNL1        0.0944
     21 C         144.3518  143.7940  165.0851 C.3     1  UNL1        0.0476
     22 C         143.4562  141.4157  165.6251 C.ar    1  UNL1       -0.0009
     23 C         143.4213  139.9442  165.3363 C.ar    1  UNL1       -0.0002
     24 C         144.2473  139.3794  164.2188 C.ar    1  UNL1       -0.0000
     25 C         145.1080  140.2862  163.3900 C.ar    1  UNL1       -0.0003
     26 C         145.1428  141.7577  163.6788 C.ar    1  UNL1       -0.0042
     27 C         144.3169  142.3224  164.7963 C.ar    1  UNL1       -0.0204
     28 C         140.1524  143.6747  170.0952 C.3     1  UNL1        0.0737
     29 C         140.9783  143.1100  168.9777 C.ar    1  UNL1        0.1396
     30 N         140.3835  142.9555  167.6094 N.ar    1  UNL1       -0.2291
     31 C         141.2094  142.3907  166.4919 C.ar    1  UNL1        0.1017
     32 C         142.6302  141.9804  166.7426 C.ar    1  UNL1        0.0380
     33 C         143.2251  142.1350  168.1109 C.ar    1  UNL1        0.1017
     34 N         142.3992  142.6997  169.2284 N.ar    1  UNL1       -0.2291
@<TRIPOS>BOND
     1    28    29    1
     2    29    30   ar
     3    30    31   ar
     4    31    32   ar
     5    32    22    1
     6    22    23   ar
     7    23    24   ar
     8    24    25   ar
     9    25    26   ar
    10    26    27   ar
    11    27    21    1
    12    21    20    1
    13    20     1    1
    14     1     2   am
    15     2     3    2
    16     2     5    1
    17     5     6   ar
    18     6     7   ar
    19     7     8   ar
    20     8    11    1
    21    11    12    1
    22    12    13    1
    23    13    14    1
    24    14    15    1
    25    15    16    1
    26    16    17    1
    27    16    18    1
    28    16    19    1
    29     8     9   ar
    30     9    10   ar
    31    32    33   ar
    32    33    34   ar
    33    34    29   ar
    34    27    22   ar
    35    10     5   ar
    36     1     4    1
@<TRIPOS>MOLECULE
*****
 34 36 0 0 0
SMALL
GASTEIGER

@<TRIPOS>ATOM
      1 N         142.7594  139.8259  164.4819 N.am    1  UNL1       -0.3005
      2 C         143.9087  139.8312  163.5181 C.2     1  UNL1        0.2474
      3 O         145.2760  140.2360  163.9835 O.2     1  UNL1       -0.2701
      4 H         141.8620  139.5602  164.1765 H       1  UNL1        0.1498
      5 C         143.6907  139.4317  162.0888 C.ar    1  UNL1        0.0727
      6 C         143.2264  138.0436  161.7605 C.ar    1  UNL1        0.0109
      7 C         143.0084  137.6440  160.3313 C.ar    1  UNL1        0.0579
      8 C         143.2546  138.6325  159.2303 C.ar    1  UNL1        0.2249
      9 N         143.7188  140.0206  159.5585 N.ar    1  UNL1       -0.2100
     10 C         143.9369  140.4202  160.9878 C.ar    1  UNL1        0.1065
     11 O         143.0365  138.2330  157.8010 O.3     1  UNL1       -0.4575
     12 C         141.9090  137.3104  157.4438 C.3     1  UNL1        0.2390
     13 C         140.5416  137.8657  157.1763 C.3     1  UNL1        0.1897
     14 O         139.5706  138.0447  158.3057 O.3     1  UNL1       -0.3417
     15 C         139.5591  139.3237  159.0893 C.3     1  UNL1        0.2459
     16 C         139.8237  139.3011  160.5656 C.3     1  UNL1        0.4248
     17 F         140.0883  139.2785  162.0419 F       1  UNL1       -0.1674
     18 F         139.0770  138.0052  160.6796 F       1  UNL1       -0.1674
     19 F         140.5705  140.5970  160.4515 F       1  UNL1       -0.1674
     20 C         142.9774  140.2255  165.9113 C.3     1  UNL1        0.0944
     21 C         143.0989  141.6757  166.2745 C.3     1  UNL1        0.0476
     22 C         141.0160  142.5458  167.5608 C.ar    1  UNL1       -0.0009
     23 C         140.3896  143.0577  168.8239 C.ar    1  UNL1       -0.0002
     24 C         141.2195  143.2113  170.0639 C.ar    1  UNL1       -0.0000
     25 C         142.6759  142.8530  170.0408 C.ar    1  UNL1       -0.0003
     26 C         143.3023  142.3412  168.7776 C.ar    1  UNL1       -0.0042
     27 C         142.4724  142.1876  167.5376 C.ar    1  UNL1       -0.0204
     28 C         137.6962  141.9315  162.6008 C.3     1  UNL1        0.0737
     29 C         138.5262  142.0851  163.8408 C.ar    1  UNL1        0.1396
     30 N         138.6000  140.9664  164.8372 N.ar    1  UNL1       -0.2291
     31 C         139.4299  141.1200  166.0772 C.ar    1  UNL1        0.1017
     32 C         140.1861  142.3923  166.3208 C.ar    1  UNL1        0.0380
     33 C         140.1123  143.5110  165.3244 C.ar    1  UNL1        0.1017
     34 N         139.2823  143.3574  164.0844 N.ar    1  UNL1       -0.2291
@<TRIPOS>BOND
     1    28    29    1
     2    29    30   ar
     3    30    31   ar
     4    31    32   ar
     5    32    22    1
     6    22    23   ar
     7    23    24   ar
     8    24    25   ar
     9    25    26   ar
    10    26    27   ar
    11    27    21    1
    12    21    20    1
    13    20     1    1
    14     1     2   am
    15     2     3    2
    16     2     5    1
    17     5     6   ar
    18     6     7   ar
    19     7     8   ar
    20     8    11    1
    21    11    12    1
    22    12    13    1
    23    13    14    1
    24    14    15    1
    25    15    16    1
    26    16    17    1
    27    16    18    1
    28    16    19    1
    29     8     9   ar
    30     9    10   ar
    31    32    33   ar
    32    33    34   ar
    33    34    29   ar
    34    27    22   ar
    35    10     5   ar
    36     1     4    1
@<TRIPOS>MOLECULE
*****
 34 36 0 0 0
SMALL
GASTEIGER

@<TRIPOS>ATOM
      1 N         138.3547  140.4325  164.0519 N.am    1  UNL1       -0.3005
      2 C         138.2545  139.9226  162.6448 C.2     1  UNL1        0.2474
      3 O         137.9194  138.4827  162.3909 O.2     1  UNL1       -0.2701
      4 H         138.5746  141.3776  164.2185 H       1  UNL1        0.1498
      5 C         138.4895  140.8526  161.4916 C.ar    1  UNL1        0.0727
      6 C         139.1497  140.3473  160.2430 C.ar    1  UNL1        0.0109
      7 C         139.3846  141.2773  159.0899 C.ar    1  UNL1        0.0579
      8 C         138.9594  142.7126  159.1852 C.ar    1  UNL1        0.2249
      9 N         138.2993  143.2179  160.4337 N.ar    1  UNL1       -0.2100
     10 C         138.0643  142.2879  161.5870 C.ar    1  UNL1        0.1065
     11 O         139.1944  143.6426  158.0320 O.3     1  UNL1       -0.4575
     12 C         140.3975  144.5384  158.0240 C.3     1  UNL1        0.2390
     13 C         140.7582  145.3208  159.2519 C.3     1  UNL1        0.1897
     14 O         141.9409  144.9138  160.0801 O.3     1  UNL1       -0.3417
     15 C         142.2626  143.4605  160.2649 C.3     1  UNL1        0.2459
     16 C         141.8208  142.7467  161.5080 C.3     1  UNL1        0.4248
     17 F         141.3789  142.0330  162.7512 F       1  UNL1       -0.1674
     18 F         141.3542  144.0483  162.0894 F       1  UNL1       -0.1674
     19 F         142.2874  141.4452  160.9265 F       1  UNL1       -0.1674
     20 C         138.1197  139.5025  165.2052 C.3     1  UNL1        0.0944
     21 C         139.2675  138.7444  165.8032 C.3     1  UNL1        0.0476
     22 C         141.6396  139.7706  165.5380 C.ar    1  UNL1       -0.0009
     23 C         142.9804  139.7864  164.8657 C.ar    1  UNL1       -0.0002
     24 C         143.2899  138.7918  163.7863 C.ar    1  UNL1       -0.0000
     25 C         142.2587  137.7815  163.3793 C.ar    1  UNL1       -0.0003
     26 C         140.9179  137.7657  164.0516 C.ar    1  UNL1       -0.0042
     27 C         140.6084  138.7603  165.1309 C.ar    1  UNL1       -0.0204
     28 C         140.4014  143.7488  169.8555 C.3     1  UNL1        0.0737
     29 C         140.7110  142.7543  168.7761 C.ar    1  UNL1        0.1396
     30 N         140.3772  143.0691  167.3480 N.ar    1  UNL1       -0.2291
     31 C         140.6868  142.0745  166.2687 C.ar    1  UNL1        0.1017
     32 C         141.3301  140.7651  166.6174 C.ar    1  UNL1        0.0380
     33 C         141.6638  140.4503  168.0454 C.ar    1  UNL1        0.1017
     34 N         141.3543  141.4449  169.1248 N.ar    1  UNL1       -0.2291
@<TRIPOS>BOND
     1    28    29    1
     2    29    30   ar
     3    30    31   ar
     4    31    32   ar
     5    32    22    1
     6    22    23   ar
     7    23    24   ar
     8    24    25   ar
     9    25    26   ar
    10    26    27   ar
    11    27    21    1
    12    21    20    1
    13    20     1    1
    14     1     2   am
    15     2     3    2
    16     2     5    1
    17     5     6   ar
    18     6     7   ar
    19     7     8   ar
    20     8    11    1
    21    11    12    1
    22    12    13    1
    23    13    14    1
    24    14    15    1
    25    15    16    1
    26    16    17    1
    27    16    18    1
    28    16    19    1
    29     8     9   ar
    30     9    10   ar
    31    32    33   ar
    32    33    34   ar
    33    34    29   ar
    34    27    22   ar
    35    10     5   ar
    36     1     4    1
@<TRIPOS>MOLECULE
*****
 34 36 0 0 0
SMALL
GASTEIGER

@<TRIPOS>ATOM
      1 N         139.0974  138.3465  163.7677 N.am    1  UNL1       -0.3005
      2 C         140.3721  137.8315  163.1678 C.2     1  UNL1        0.2474
      3 O         141.3756  137.1258  164.0308 O.2     1  UNL1       -0.2701
      4 H         138.4387  138.8097  163.2012 H       1  UNL1        0.1498
      5 C         140.6433  138.0223  161.7049 C.ar    1  UNL1        0.0727
      6 C         142.0484  137.9422  161.1859 C.ar    1  UNL1        0.0109
      7 C         142.3195  138.1330  159.7230 C.ar    1  UNL1        0.0579
      8 C         141.1857  138.4039  158.7791 C.ar    1  UNL1        0.2249
      9 N         139.7806  138.4840  159.2981 N.ar    1  UNL1       -0.2100
     10 C         139.5094  138.2932  160.7610 C.ar    1  UNL1        0.1065
     11 O         141.4568  138.5947  157.3163 O.3     1  UNL1       -0.4575
     12 C         142.8526  138.4476  156.7868 C.3     1  UNL1        0.2390
     13 C         143.3080  137.1322  156.2280 C.3     1  UNL1        0.1897
     14 O         142.4633  135.9063  156.4119 O.3     1  UNL1       -0.3417
     15 C         142.8492  134.6219  155.7401 C.3     1  UNL1        0.2459
     16 C         142.7841  133.3297  156.4990 C.3     1  UNL1        0.4248
     17 F         142.7191  132.0374  157.2579 F       1  UNL1       -0.1674
     18 F         144.1493  133.5918  157.0624 F       1  UNL1       -0.1674
     19 F         141.4189  133.0676  155.9356 F       1  UNL1       -0.1674
     20 C         138.8262  138.1557  165.2306 C.3     1  UNL1        0.0944
     21 C         138.3978  139.3211  166.0722 C.3     1  UNL1        0.0476
     22 C         140.0354  141.3177  166.3593 C.ar    1  UNL1       -0.0009
     23 C         140.4673  142.7065  165.9926 C.ar    1  UNL1       -0.0002
     24 C         139.6937  143.4877  164.9721 C.ar    1  UNL1       -0.0000
     25 C         138.4882  142.8801  164.3184 C.ar    1  UNL1       -0.0003
     26 C         138.0563  141.4913  164.6851 C.ar    1  UNL1       -0.0042
     27 C         138.8298  140.7101  165.7055 C.ar    1  UNL1       -0.0204
     28 C         143.1297  138.1929  170.4410 C.3     1  UNL1        0.0737
     29 C         142.3561  138.9741  169.4206 C.ar    1  UNL1        0.1396
     30 N         142.8797  139.1046  168.0211 N.ar    1  UNL1       -0.2291
     31 C         142.1062  139.8858  167.0006 C.ar    1  UNL1        0.1017
     32 C         140.8089  140.5365  167.3797 C.ar    1  UNL1        0.0380
     33 C         140.2853  140.4060  168.7792 C.ar    1  UNL1        0.1017
     34 N         141.0589  139.6248  169.7997 N.ar    1  UNL1       -0.2291
@<TRIPOS>BOND
     1    28    29    1
     2    29    30   ar
     3    30    31   ar
     4    31    32   ar
     5    32    22    1
     6    22    23   ar
     7    23    24   ar
     8    24    25   ar
     9    25    26   ar
    10    26    27   ar
    11    27    21    1
    12    21    20    1
    13    20     1    1
    14     1     2   am
    15     2     3    2
    16     2     5    1
    17     5     6   ar
    18     6     7   ar
    19     7     8   ar
    20     8    11    1
    21    11    12    1
    22    12    13    1
    23    13    14    1
    24    14    15    1
    25    15    16    1
    26    16    17    1
    27    16    18    1
    28    16    19    1
    29     8     9   ar
    30     9    10   ar
    31    32    33   ar
    32    33    34   ar
    33    34    29   ar
    34    27    22   ar
    35    10     5   ar
    36     1     4    1
