@<TRIPOS>MOLECULE
*****
 42 46 0 0 0
SMALL
GASTEIGER

@<TRIPOS>ATOM
      1 C         140.8625  145.1527  160.3307 C.3     1  UNL1        0.1700
      2 O         141.8060  145.8570  159.4012 O.3     1  UNL1       -0.3793
      3 H         141.8660  145.3650  158.5674 H       1  UNL1        0.2106
      4 C         140.1870  143.8860  159.8956 C.3     1  UNL1        0.2358
      5 O         140.7788  142.5569  160.2607 O.3     1  UNL1       -0.4727
      6 C         140.3166  140.0021  160.3577 C.ar    1  UNL1        0.0709
      7 C         139.4196  138.8573  160.7249 C.ar    1  UNL1        0.0355
      8 C         138.0880  139.1223  161.3624 C.ar    1  UNL1        0.1404
      9 F         137.1911  137.9775  161.7296 F       1  UNL1       -0.2042
     10 C         137.6532  140.5323  161.6327 C.ar    1  UNL1        0.0328
     11 C         138.5502  141.6772  161.2655 C.ar    1  UNL1        0.0393
     12 C         139.8819  141.4120  160.6279 C.ar    1  UNL1        0.1415
     13 O         142.0174  140.4262  158.4401 O.2     1  UNL1       -0.2912
     14 C         141.6482  139.7370  159.7202 C.2     1  UNL1        0.1764
     15 C         142.6107  138.7826  160.3628 C.3     1  UNL1        0.0739
     16 C         143.5010  139.2509  161.4754 C.3     1  UNL1        0.0345
     17 C         143.1191  138.9892  162.9023 C.ar    1  UNL1       -0.0217
     18 C         143.7437  139.7914  164.0051 C.ar    1  UNL1       -0.0043
     19 C         143.3618  139.5297  165.4318 C.ar    1  UNL1       -0.0003
     20 C         142.3553  138.4657  165.7557 C.ar    1  UNL1       -0.0000
     21 C         141.7307  137.6634  164.6529 C.ar    1  UNL1       -0.0003
     22 C         142.1126  137.9252  163.2262 C.ar    1  UNL1       -0.0043
     23 C         140.5945  145.7150  161.6952 C.3     1  UNL1        0.1056
     24 N         140.5363  144.8025  162.8843 N.3     1  UNL1       -0.2682
     25 C         139.2983  144.7503  163.7296 C.3     1  UNL1        0.0897
     26 C         139.2400  143.8378  164.9187 C.3     1  UNL1        0.0901
     27 N         140.4198  142.9776  165.2625 N.3     1  UNL1       -0.2644
     28 C         141.6578  143.0299  164.4172 C.3     1  UNL1        0.0901
     29 C         141.7160  143.9424  163.2281 C.3     1  UNL1        0.0897
     30 C         140.3615  142.0651  166.4516 C.3     1  UNL1        0.1031
     31 C         141.1002  142.4216  167.7075 C.ar    1  UNL1       -0.0036
     32 C         140.4254  143.2406  168.7677 C.ar    1  UNL1       -0.0026
     33 C         141.1641  143.5971  170.0236 C.ar    1  UNL1       -0.0003
     34 C         142.5776  143.1347  170.2192 C.ar    1  UNL1       -0.0000
     35 C         143.2524  142.3158  169.1590 C.ar    1  UNL1       -0.0003
     36 C         142.5137  141.9592  167.9031 C.ar    1  UNL1       -0.0026
     37 C         139.5646  140.7961  166.3849 C.ar    1  UNL1       -0.0036
     38 C         139.1580  140.2349  165.0546 C.ar    1  UNL1       -0.0026
     39 C         138.3610  138.9658  164.9879 C.ar    1  UNL1       -0.0003
     40 C         137.9707  138.2581  166.2515 C.ar    1  UNL1       -0.0000
     41 C         138.3773  138.8193  167.5818 C.ar    1  UNL1       -0.0003
     42 C         139.1742  140.0883  167.6485 C.ar    1  UNL1       -0.0026
@<TRIPOS>BOND
     1    13    14    2
     2    14    15    1
     3    15    16    1
     4    16    17    1
     5    17    18   ar
     6    18    19   ar
     7    19    20   ar
     8    20    21   ar
     9    21    22   ar
    10    14     6    1
    11     6     7   ar
    12     7     8   ar
    13     8     9    1
    14     8    10   ar
    15    10    11   ar
    16    11    12   ar
    17    12     5    1
    18     5     4    1
    19     4     1    1
    20     1     2    1
    21     1    23    1
    22    23    24    1
    23    24    25    1
    24    25    26    1
    25    26    27    1
    26    27    30    1
    27    30    31    1
    28    31    32   ar
    29    32    33   ar
    30    33    34   ar
    31    34    35   ar
    32    35    36   ar
    33    30    37    1
    34    37    38   ar
    35    38    39   ar
    36    39    40   ar
    37    40    41   ar
    38    41    42   ar
    39    27    28    1
    40    28    29    1
    41    22    17   ar
    42    12     6   ar
    43    29    24    1
    44    36    31   ar
    45    42    37   ar
    46     2     3    1
@<TRIPOS>MOLECULE
*****
 42 46 0 0 0
SMALL
GASTEIGER

@<TRIPOS>ATOM
      1 C         140.7280  145.2106  160.0071 C.3     1  UNL1        0.1700
      2 O         141.8544  145.8869  159.2832 O.3     1  UNL1       -0.3793
      3 H         141.9539  145.4948  158.4016 H       1  UNL1        0.2106
      4 C         139.9614  144.1083  159.3383 C.3     1  UNL1        0.2358
      5 O         140.5053  142.7103  159.3368 O.3     1  UNL1       -0.4727
      6 C         140.3116  140.2236  160.0636 C.ar    1  UNL1        0.0709
      7 C         139.6352  139.1548  160.8700 C.ar    1  UNL1        0.0355
      8 C         138.4762  139.5039  161.7557 C.ar    1  UNL1        0.1404
      9 F         137.7998  138.4351  162.5620 F       1  UNL1       -0.2042
     10 C         137.9934  140.9219  161.8352 C.ar    1  UNL1        0.0328
     11 C         138.6698  141.9907  161.0289 C.ar    1  UNL1        0.0393
     12 C         139.8289  141.6415  160.1431 C.ar    1  UNL1        0.1415
     13 O         141.2429  139.0941  157.9173 O.2     1  UNL1       -0.2912
     14 C         141.4707  139.8744  159.1779 C.2     1  UNL1        0.1764
     15 C         142.8576  140.3057  159.5527 C.3     1  UNL1        0.0739
     16 C         143.6538  139.4995  160.5356 C.3     1  UNL1        0.0345
     17 C         144.1490  140.1355  161.8007 C.ar    1  UNL1       -0.0217
     18 C         144.7442  141.5118  161.7651 C.ar    1  UNL1       -0.0043
     19 C         145.2394  142.1477  163.0301 C.ar    1  UNL1       -0.0003
     20 C         145.1394  141.4073  164.3308 C.ar    1  UNL1       -0.0000
     21 C         144.5442  140.0309  164.3664 C.ar    1  UNL1       -0.0003
     22 C         144.0490  139.3950  163.1014 C.ar    1  UNL1       -0.0043
     23 C         140.3683  145.6365  161.3996 C.3     1  UNL1        0.1056
     24 N         140.4324  144.6484  162.5263 N.3     1  UNL1       -0.2682
     25 C         141.6044  143.7195  162.6435 C.3     1  UNL1        0.0897
     26 C         141.6685  142.7314  163.7702 C.3     1  UNL1        0.0901
     27 N         140.5606  142.6720  164.7797 N.3     1  UNL1       -0.2644
     28 C         139.3887  143.6008  164.6625 C.3     1  UNL1        0.0901
     29 C         139.3246  144.5890  163.5358 C.3     1  UNL1        0.0897
     30 C         140.6248  141.6839  165.9064 C.3     1  UNL1        0.1031
     31 C         140.0690  140.3025  165.7250 C.ar    1  UNL1       -0.0036
     32 C         138.7649  139.9287  166.3652 C.ar    1  UNL1       -0.0026
     33 C         138.2092  138.5473  166.1839 C.ar    1  UNL1       -0.0003
     34 C         138.9573  137.5398  165.3622 C.ar    1  UNL1       -0.0000
     35 C         140.2613  137.9136  164.7220 C.ar    1  UNL1       -0.0003
     36 C         140.8171  139.2950  164.9033 C.ar    1  UNL1       -0.0026
     37 C         141.2446  142.0770  167.2144 C.ar    1  UNL1       -0.0036
     38 C         140.4093  142.7346  168.2727 C.ar    1  UNL1       -0.0026
     39 C         141.0293  143.1278  169.5808 C.ar    1  UNL1       -0.0003
     40 C         142.4845  142.8634  169.8306 C.ar    1  UNL1       -0.0000
     41 C         143.3198  142.2058  168.7724 C.ar    1  UNL1       -0.0003
     42 C         142.6999  141.8127  167.4643 C.ar    1  UNL1       -0.0026
@<TRIPOS>BOND
     1    13    14    2
     2    14    15    1
     3    15    16    1
     4    16    17    1
     5    17    18   ar
     6    18    19   ar
     7    19    20   ar
     8    20    21   ar
     9    21    22   ar
    10    14     6    1
    11     6     7   ar
    12     7     8   ar
    13     8     9    1
    14     8    10   ar
    15    10    11   ar
    16    11    12   ar
    17    12     5    1
    18     5     4    1
    19     4     1    1
    20     1     2    1
    21     1    23    1
    22    23    24    1
    23    24    25    1
    24    25    26    1
    25    26    27    1
    26    27    30    1
    27    30    31    1
    28    31    32   ar
    29    32    33   ar
    30    33    34   ar
    31    34    35   ar
    32    35    36   ar
    33    30    37    1
    34    37    38   ar
    35    38    39   ar
    36    39    40   ar
    37    40    41   ar
    38    41    42   ar
    39    27    28    1
    40    28    29    1
    41    22    17   ar
    42    12     6   ar
    43    29    24    1
    44    36    31   ar
    45    42    37   ar
    46     2     3    1
@<TRIPOS>MOLECULE
*****
 42 46 0 0 0
SMALL
GASTEIGER

@<TRIPOS>ATOM
      1 C         140.0987  145.7956  161.3749 C.3     1  UNL1        0.1700
      2 O         138.8943  146.6723  161.1991 O.3     1  UNL1       -0.3793
      3 H         138.4981  146.5069  160.3293 H       1  UNL1        0.2106
      4 C         140.5069  144.8539  160.2810 C.3     1  UNL1        0.2358
      5 O         139.5219  143.8599  159.7407 O.3     1  UNL1       -0.4727
      6 C         139.7173  141.3482  160.3758 C.ar    1  UNL1        0.0709
      7 C         139.2875  140.1842  161.2186 C.ar    1  UNL1        0.0355
      8 C         138.2327  140.3677  162.2691 C.ar    1  UNL1        0.1404
      9 F         137.8030  139.2036  163.1118 F       1  UNL1       -0.2042
     10 C         137.6075  141.7154  162.4768 C.ar    1  UNL1        0.0328
     11 C         138.0373  142.8794  161.6341 C.ar    1  UNL1        0.0393
     12 C         139.0922  142.6958  160.5835 C.ar    1  UNL1        0.1415
     13 O         140.4097  141.2642  157.8731 O.2     1  UNL1       -0.2912
     14 C         140.7721  141.1647  159.3253 C.2     1  UNL1        0.1764
     15 C         142.1894  140.8817  159.7269 C.3     1  UNL1        0.0739
     16 C         142.9327  141.8561  160.5917 C.3     1  UNL1        0.0345
     17 C         143.7193  141.3644  161.7706 C.ar    1  UNL1       -0.0217
     18 C         144.9289  142.1210  162.2333 C.ar    1  UNL1       -0.0043
     19 C         145.7154  141.6292  163.4121 C.ar    1  UNL1       -0.0003
     20 C         145.2922  140.3810  164.1282 C.ar    1  UNL1       -0.0000
     21 C         144.0825  139.6244  163.6654 C.ar    1  UNL1       -0.0003
     22 C         143.2961  140.1161  162.4866 C.ar    1  UNL1       -0.0043
     23 C         140.8949  145.8607  162.6444 C.3     1  UNL1        0.1056
     24 N         140.8242  144.7344  163.6326 N.3     1  UNL1       -0.2682
     25 C         142.0149  143.8472  163.8451 C.3     1  UNL1        0.0897
     26 C         141.9442  142.7210  164.8333 C.3     1  UNL1        0.0901
     27 N         140.6828  142.4819  165.6090 N.3     1  UNL1       -0.2644
     28 C         139.4922  143.3691  165.3965 C.3     1  UNL1        0.0901
     29 C         139.5628  144.4953  164.4083 C.3     1  UNL1        0.0897
     30 C         140.6121  141.3556  166.5972 C.3     1  UNL1        0.1031
     31 C         141.1287  141.5483  167.9922 C.ar    1  UNL1       -0.0036
     32 C         140.7385  142.7670  168.7749 C.ar    1  UNL1       -0.0026
     33 C         141.2551  142.9596  170.1698 C.ar    1  UNL1       -0.0003
     34 C         142.1619  141.9336  170.7822 C.ar    1  UNL1       -0.0000
     35 C         142.5522  140.7150  169.9996 C.ar    1  UNL1       -0.0003
     36 C         142.0356  140.5223  168.6045 C.ar    1  UNL1       -0.0026
     37 C         140.0249  140.0367  166.1904 C.ar    1  UNL1       -0.0036
     38 C         138.6928  139.6098  166.7321 C.ar    1  UNL1       -0.0026
     39 C         138.1055  138.2908  166.3253 C.ar    1  UNL1       -0.0003
     40 C         138.8503  137.3988  165.3769 C.ar    1  UNL1       -0.0000
     41 C         140.1823  137.8257  164.8352 C.ar    1  UNL1       -0.0003
     42 C         140.7696  139.1446  165.2420 C.ar    1  UNL1       -0.0026
@<TRIPOS>BOND
     1    13    14    2
     2    14    15    1
     3    15    16    1
     4    16    17    1
     5    17    18   ar
     6    18    19   ar
     7    19    20   ar
     8    20    21   ar
     9    21    22   ar
    10    14     6    1
    11     6     7   ar
    12     7     8   ar
    13     8     9    1
    14     8    10   ar
    15    10    11   ar
    16    11    12   ar
    17    12     5    1
    18     5     4    1
    19     4     1    1
    20     1     2    1
    21     1    23    1
    22    23    24    1
    23    24    25    1
    24    25    26    1
    25    26    27    1
    26    27    30    1
    27    30    31    1
    28    31    32   ar
    29    32    33   ar
    30    33    34   ar
    31    34    35   ar
    32    35    36   ar
    33    30    37    1
    34    37    38   ar
    35    38    39   ar
    36    39    40   ar
    37    40    41   ar
    38    41    42   ar
    39    27    28    1
    40    28    29    1
    41    22    17   ar
    42    12     6   ar
    43    29    24    1
    44    36    31   ar
    45    42    37   ar
    46     2     3    1
@<TRIPOS>MOLECULE
*****
 42 46 0 0 0
SMALL
GASTEIGER

@<TRIPOS>ATOM
      1 C         139.7146  145.3802  161.2491 C.3     1  UNL1        0.1700
      2 O         139.2889  146.8160  161.3338 O.3     1  UNL1       -0.3793
      3 H         139.8940  147.3641  160.8099 H       1  UNL1        0.2106
      4 C         140.9172  145.0011  160.4367 C.3     1  UNL1        0.2358
      5 O         141.3442  143.5655  160.3537 O.3     1  UNL1       -0.4727
      6 C         143.1843  141.7710  160.7326 C.ar    1  UNL1        0.0709
      7 C         144.4347  141.3191  161.4269 C.ar    1  UNL1        0.0355
      8 C         145.0955  142.2098  162.4368 C.ar    1  UNL1        0.1404
      9 F         146.3460  141.7579  163.1312 F       1  UNL1       -0.2042
     10 C         144.5059  143.5525  162.7524 C.ar    1  UNL1        0.0328
     11 C         143.2554  144.0044  162.0581 C.ar    1  UNL1        0.0393
     12 C         142.5946  143.1136  161.0481 C.ar    1  UNL1        0.1415
     13 O         142.9581  140.9219  158.2876 O.2     1  UNL1       -0.2912
     14 C         142.5235  140.8803  159.7227 C.2     1  UNL1        0.1764
     15 C         141.4281  139.9478  160.1478 C.3     1  UNL1        0.0739
     16 C         141.7663  138.6514  160.8223 C.3     1  UNL1        0.0345
     17 C         141.0215  138.2303  162.0544 C.ar    1  UNL1       -0.0217
     18 C         139.5255  138.3297  162.0970 C.ar    1  UNL1       -0.0043
     19 C         138.7807  137.9086  163.3291 C.ar    1  UNL1       -0.0003
     20 C         139.5320  137.3880  164.5184 C.ar    1  UNL1       -0.0000
     21 C         141.0281  137.2886  164.4757 C.ar    1  UNL1       -0.0003
     22 C         141.7728  137.7098  163.2437 C.ar    1  UNL1       -0.0043
     23 C         138.9376  144.3234  161.9767 C.3     1  UNL1        0.1056
     24 N         139.5750  143.5663  163.1038 N.3     1  UNL1       -0.2682
     25 C         139.4564  142.0723  163.1655 C.3     1  UNL1        0.0897
     26 C         140.0938  141.3151  164.2927 C.3     1  UNL1        0.0901
     27 N         140.8499  142.0520  165.3581 N.3     1  UNL1       -0.2644
     28 C         140.9685  143.5460  165.2965 C.3     1  UNL1        0.0901
     29 C         140.3311  144.3031  164.1693 C.3     1  UNL1        0.0897
     30 C         141.4873  141.2949  166.4853 C.3     1  UNL1        0.1031
     31 C         141.0416  141.5356  167.8971 C.ar    1  UNL1       -0.0036
     32 C         141.7990  142.4920  168.7700 C.ar    1  UNL1       -0.0026
     33 C         141.3533  142.7328  170.1818 C.ar    1  UNL1       -0.0003
     34 C         140.1503  142.0172  170.7209 C.ar    1  UNL1       -0.0000
     35 C         139.3929  141.0608  169.8482 C.ar    1  UNL1       -0.0003
     36 C         139.8386  140.8200  168.4362 C.ar    1  UNL1       -0.0026
     37 C         142.5704  140.2970  166.2006 C.ar    1  UNL1       -0.0036
     38 C         142.7379  139.0985  167.0869 C.ar    1  UNL1       -0.0026
     39 C         143.8211  138.1006  166.8021 C.ar    1  UNL1       -0.0003
     40 C         144.7367  138.3013  165.6311 C.ar    1  UNL1       -0.0000
     41 C         144.5692  139.4998  164.7448 C.ar    1  UNL1       -0.0003
     42 C         143.4861  140.4976  165.0295 C.ar    1  UNL1       -0.0026
@<TRIPOS>BOND
     1    13    14    2
     2    14    15    1
     3    15    16    1
     4    16    17    1
     5    17    18   ar
     6    18    19   ar
     7    19    20   ar
     8    20    21   ar
     9    21    22   ar
    10    14     6    1
    11     6     7   ar
    12     7     8   ar
    13     8     9    1
    14     8    10   ar
    15    10    11   ar
    16    11    12   ar
    17    12     5    1
    18     5     4    1
    19     4     1    1
    20     1     2    1
    21     1    23    1
    22    23    24    1
    23    24    25    1
    24    25    26    1
    25    26    27    1
    26    27    30    1
    27    30    31    1
    28    31    32   ar
    29    32    33   ar
    30    33    34   ar
    31    34    35   ar
    32    35    36   ar
    33    30    37    1
    34    37    38   ar
    35    38    39   ar
    36    39    40   ar
    37    40    41   ar
    38    41    42   ar
    39    27    28    1
    40    28    29    1
    41    22    17   ar
    42    12     6   ar
    43    29    24    1
    44    36    31   ar
    45    42    37   ar
    46     2     3    1
@<TRIPOS>MOLECULE
*****
 42 46 0 0 0
SMALL
GASTEIGER

@<TRIPOS>ATOM
      1 C         140.1796  145.9289  161.3665 C.3     1  UNL1        0.1700
      2 O         138.9350  146.7113  161.0682 O.3     1  UNL1       -0.3793
      3 H         138.6641  146.5506  160.1508 H       1  UNL1        0.2106
      4 C         140.7982  145.0699  160.3037 C.3     1  UNL1        0.2358
      5 O         142.2056  144.5762  160.4634 O.3     1  UNL1       -0.4727
      6 C         143.4820  142.3697  159.9615 C.ar    1  UNL1        0.0709
      7 C         144.0509  141.3936  158.9747 C.ar    1  UNL1        0.0355
      8 C         143.9123  141.6482  157.5030 C.ar    1  UNL1        0.1404
      9 F         144.4812  140.6721  156.5162 F       1  UNL1       -0.2042
     10 C         143.2048  142.8788  157.0180 C.ar    1  UNL1        0.0328
     11 C         142.6359  143.8548  158.0048 C.ar    1  UNL1        0.0393
     12 C         142.7745  143.6002  159.4766 C.ar    1  UNL1        0.1415
     13 O         144.7274  142.7686  162.2064 O.2     1  UNL1       -0.2912
     14 C         143.6205  142.1151  161.4332 C.2     1  UNL1        0.1764
     15 C         142.6523  141.2070  162.1317 C.3     1  UNL1        0.0739
     16 C         141.1857  141.5215  162.1182 C.3     1  UNL1        0.0345
     17 C         140.1824  140.4141  161.9865 C.ar    1  UNL1       -0.0217
     18 C         140.5929  139.0960  161.4001 C.ar    1  UNL1       -0.0043
     19 C         139.5896  137.9887  161.2684 C.ar    1  UNL1       -0.0003
     20 C         138.1758  138.1996  161.7231 C.ar    1  UNL1       -0.0000
     21 C         137.7653  139.5178  162.3095 C.ar    1  UNL1       -0.0003
     22 C         138.7686  140.6250  162.4412 C.ar    1  UNL1       -0.0043
     23 C         140.8057  146.0056  162.7274 C.3     1  UNL1        0.1056
     24 N         140.6780  144.8521  163.6778 N.3     1  UNL1       -0.2682
     25 C         141.9069  144.2306  164.2722 C.3     1  UNL1        0.0897
     26 C         141.7792  143.0771  165.2226 C.3     1  UNL1        0.0901
     27 N         140.4227  142.5452  165.5785 N.3     1  UNL1       -0.2644
     28 C         139.1938  143.1667  164.9840 C.3     1  UNL1        0.0901
     29 C         139.3214  144.3202  164.0336 C.3     1  UNL1        0.0897
     30 C         140.2950  141.3917  166.5288 C.3     1  UNL1        0.1031
     31 C         140.0763  140.0051  166.0002 C.ar    1  UNL1       -0.0036
     32 C         138.7172  139.3760  166.0844 C.ar    1  UNL1       -0.0026
     33 C         138.4985  137.9894  165.5558 C.ar    1  UNL1       -0.0003
     34 C         139.6390  137.2318  164.9431 C.ar    1  UNL1       -0.0000
     35 C         140.9981  137.8608  164.8589 C.ar    1  UNL1       -0.0003
     36 C         141.2168  139.2475  165.3875 C.ar    1  UNL1       -0.0026
     37 C         140.3860  141.6248  168.0078 C.ar    1  UNL1       -0.0036
     38 C         140.4140  143.0246  168.5461 C.ar    1  UNL1       -0.0026
     39 C         140.5050  143.2577  170.0251 C.ar    1  UNL1       -0.0003
     40 C         140.5680  142.0910  170.9658 C.ar    1  UNL1       -0.0000
     41 C         140.5400  140.6912  170.4275 C.ar    1  UNL1       -0.0003
     42 C         140.4490  140.4581  168.9485 C.ar    1  UNL1       -0.0026
@<TRIPOS>BOND
     1    13    14    2
     2    14    15    1
     3    15    16    1
     4    16    17    1
     5    17    18   ar
     6    18    19   ar
     7    19    20   ar
     8    20    21   ar
     9    21    22   ar
    10    14     6    1
    11     6     7   ar
    12     7     8   ar
    13     8     9    1
    14     8    10   ar
    15    10    11   ar
    16    11    12   ar
    17    12     5    1
    18     5     4    1
    19     4     1    1
    20     1     2    1
    21     1    23    1
    22    23    24    1
    23    24    25    1
    24    25    26    1
    25    26    27    1
    26    27    30    1
    27    30    31    1
    28    31    32   ar
    29    32    33   ar
    30    33    34   ar
    31    34    35   ar
    32    35    36   ar
    33    30    37    1
    34    37    38   ar
    35    38    39   ar
    36    39    40   ar
    37    40    41   ar
    38    41    42   ar
    39    27    28    1
    40    28    29    1
    41    22    17   ar
    42    12     6   ar
    43    29    24    1
    44    36    31   ar
    45    42    37   ar
    46     2     3    1
@<TRIPOS>MOLECULE
*****
 42 46 0 0 0
SMALL
GASTEIGER

@<TRIPOS>ATOM
      1 C         140.5609  144.8861  160.4302 C.3     1  UNL1        0.1700
      2 O         141.8775  145.5195  160.0902 O.3     1  UNL1       -0.3793
      3 H         142.1662  145.2156  159.2154 H       1  UNL1        0.2106
      4 C         139.9096  143.9440  159.4617 C.3     1  UNL1        0.2358
      5 O         140.4117  142.5364  159.3317 O.3     1  UNL1       -0.4727
      6 C         140.2749  140.0313  160.0064 C.ar    1  UNL1        0.0709
      7 C         139.5773  138.9165  160.7279 C.ar    1  UNL1        0.0355
      8 C         138.3189  139.1920  161.4962 C.ar    1  UNL1        0.1404
      9 F         137.6213  138.0773  162.2177 F       1  UNL1       -0.2042
     10 C         137.7579  140.5825  161.5430 C.ar    1  UNL1        0.0328
     11 C         138.4555  141.6973  160.8214 C.ar    1  UNL1        0.0393
     12 C         139.7141  141.4216  160.0532 C.ar    1  UNL1        0.1415
     13 O         141.7747  140.4379  157.9243 O.2     1  UNL1       -0.2912
     14 C         141.5334  139.7557  159.2382 C.2     1  UNL1        0.1764
     15 C         142.5507  138.7978  159.7838 C.3     1  UNL1        0.0739
     16 C         143.8261  139.3167  160.3788 C.3     1  UNL1        0.0345
     17 C         143.9284  139.5360  161.8592 C.ar    1  UNL1       -0.0217
     18 C         143.2608  138.5836  162.8063 C.ar    1  UNL1       -0.0043
     19 C         143.3631  138.8029  164.2867 C.ar    1  UNL1       -0.0003
     20 C         144.1330  139.9747  164.8198 C.ar    1  UNL1       -0.0000
     21 C         144.8006  140.9271  163.8727 C.ar    1  UNL1       -0.0003
     22 C         144.6983  140.7078  162.3923 C.ar    1  UNL1       -0.0043
     23 C         139.8958  145.1950  161.7387 C.3     1  UNL1        0.1056
     24 N         139.9737  144.2130  162.8698 N.3     1  UNL1       -0.2682
     25 C         138.8497  144.1171  163.8585 C.3     1  UNL1        0.0897
     26 C         138.9276  143.1350  164.9897 C.3     1  UNL1        0.0901
     27 N         140.1294  142.2489  165.1322 N.3     1  UNL1       -0.2644
     28 C         141.2534  142.3449  164.1436 C.3     1  UNL1        0.0901
     29 C         141.1755  143.3269  163.0124 C.3     1  UNL1        0.0897
     30 C         140.2073  141.2669  166.2634 C.3     1  UNL1        0.1031
     31 C         140.9632  141.6178  167.5105 C.ar    1  UNL1       -0.0036
     32 C         142.1515  140.8002  167.9224 C.ar    1  UNL1       -0.0026
     33 C         142.9075  141.1511  169.1695 C.ar    1  UNL1       -0.0003
     34 C         142.4752  142.3196  170.0048 C.ar    1  UNL1       -0.0000
     35 C         141.2870  143.1372  169.5930 C.ar    1  UNL1       -0.0003
     36 C         140.5310  142.7863  168.3458 C.ar    1  UNL1       -0.0026
     37 C         139.5292  139.9340  166.1474 C.ar    1  UNL1       -0.0036
     38 C         139.9724  138.9556  165.1004 C.ar    1  UNL1       -0.0026
     39 C         139.2942  137.6226  164.9844 C.ar    1  UNL1       -0.0003
     40 C         138.1730  137.2681  165.9156 C.ar    1  UNL1       -0.0000
     41 C         137.7298  138.2465  166.9627 C.ar    1  UNL1       -0.0003
     42 C         138.4079  139.5794  167.0786 C.ar    1  UNL1       -0.0026
@<TRIPOS>BOND
     1    13    14    2
     2    14    15    1
     3    15    16    1
     4    16    17    1
     5    17    18   ar
     6    18    19   ar
     7    19    20   ar
     8    20    21   ar
     9    21    22   ar
    10    14     6    1
    11     6     7   ar
    12     7     8   ar
    13     8     9    1
    14     8    10   ar
    15    10    11   ar
    16    11    12   ar
    17    12     5    1
    18     5     4    1
    19     4     1    1
    20     1     2    1
    21     1    23    1
    22    23    24    1
    23    24    25    1
    24    25    26    1
    25    26    27    1
    26    27    30    1
    27    30    31    1
    28    31    32   ar
    29    32    33   ar
    30    33    34   ar
    31    34    35   ar
    32    35    36   ar
    33    30    37    1
    34    37    38   ar
    35    38    39   ar
    36    39    40   ar
    37    40    41   ar
    38    41    42   ar
    39    27    28    1
    40    28    29    1
    41    22    17   ar
    42    12     6   ar
    43    29    24    1
    44    36    31   ar
    45    42    37   ar
    46     2     3    1
@<TRIPOS>MOLECULE
*****
 42 46 0 0 0
SMALL
GASTEIGER

@<TRIPOS>ATOM
      1 C         140.4717  145.5479  160.6989 C.3     1  UNL1        0.1700
      2 O         139.4514  145.9862  159.6904 O.3     1  UNL1       -0.3793
      3 H         139.7493  145.7394  158.8009 H       1  UNL1        0.2106
      4 C         141.7173  144.8441  160.2483 C.3     1  UNL1        0.2358
      5 O         141.8375  143.3572  160.4063 O.3     1  UNL1       -0.4727
      6 C         140.6525  141.7274  158.7664 C.ar    1  UNL1        0.0709
      7 C         140.6955  140.8454  157.5539 C.ar    1  UNL1        0.0355
      8 C         141.9665  140.7112  156.7687 C.ar    1  UNL1        0.1404
      9 F         142.0095  139.8292  155.5562 F       1  UNL1       -0.2042
     10 C         143.1946  141.4591  157.1960 C.ar    1  UNL1        0.0328
     11 C         143.1516  142.3411  158.4086 C.ar    1  UNL1        0.0393
     12 C         141.8805  142.4752  159.1938 C.ar    1  UNL1        0.1415
     13 O         138.4829  143.0416  159.3281 O.2     1  UNL1       -0.2912
     14 C         139.3815  141.8615  159.5516 C.2     1  UNL1        0.1764
     15 C         139.0091  140.8156  160.5602 C.3     1  UNL1        0.0739
     16 C         139.8340  140.6428  161.8010 C.3     1  UNL1        0.0345
     17 C         141.1152  139.8643  161.7475 C.ar    1  UNL1       -0.0217
     18 C         141.1314  138.4865  161.1548 C.ar    1  UNL1       -0.0043
     19 C         142.4125  137.7081  161.1013 C.ar    1  UNL1       -0.0003
     20 C         143.6773  138.3076  161.6405 C.ar    1  UNL1       -0.0000
     21 C         143.6611  139.6854  162.2332 C.ar    1  UNL1       -0.0003
     22 C         142.3800  140.4638  162.2867 C.ar    1  UNL1       -0.0043
     23 C         140.2464  145.8135  162.1578 C.3     1  UNL1        0.1056
     24 N         140.2919  144.6823  163.1419 N.3     1  UNL1       -0.2682
     25 C         139.0326  143.9525  163.5045 C.3     1  UNL1        0.0897
     26 C         139.0781  142.8213  164.4886 C.3     1  UNL1        0.0901
     27 N         140.3829  142.4198  165.1099 N.3     1  UNL1       -0.2644
     28 C         141.6423  143.1496  164.7473 C.3     1  UNL1        0.0901
     29 C         141.5967  144.2808  163.7632 C.3     1  UNL1        0.0897
     30 C         140.4285  141.2886  166.0939 C.3     1  UNL1        0.1031
     31 C         140.6926  139.8909  165.6182 C.ar    1  UNL1       -0.0036
     32 C         139.5734  139.0666  165.0540 C.ar    1  UNL1       -0.0026
     33 C         139.8375  137.6688  164.5782 C.ar    1  UNL1       -0.0003
     34 C         141.2207  137.0952  164.6665 C.ar    1  UNL1       -0.0000
     35 C         142.3398  137.9194  165.2306 C.ar    1  UNL1       -0.0003
     36 C         142.0758  139.3173  165.7065 C.ar    1  UNL1       -0.0026
     37 C         140.2099  141.5552  167.5538 C.ar    1  UNL1       -0.0036
     38 C         140.5841  142.8853  168.1376 C.ar    1  UNL1       -0.0026
     39 C         140.3655  143.1518  169.5975 C.ar    1  UNL1       -0.0003
     40 C         139.7727  142.0883  170.4735 C.ar    1  UNL1       -0.0000
     41 C         139.3985  140.7582  169.8897 C.ar    1  UNL1       -0.0003
     42 C         139.6171  140.4917  168.4299 C.ar    1  UNL1       -0.0026
@<TRIPOS>BOND
     1    13    14    2
     2    14    15    1
     3    15    16    1
     4    16    17    1
     5    17    18   ar
     6    18    19   ar
     7    19    20   ar
     8    20    21   ar
     9    21    22   ar
    10    14     6    1
    11     6     7   ar
    12     7     8   ar
    13     8     9    1
    14     8    10   ar
    15    10    11   ar
    16    11    12   ar
    17    12     5    1
    18     5     4    1
    19     4     1    1
    20     1     2    1
    21     1    23    1
    22    23    24    1
    23    24    25    1
    24    25    26    1
    25    26    27    1
    26    27    30    1
    27    30    31    1
    28    31    32   ar
    29    32    33   ar
    30    33    34   ar
    31    34    35   ar
    32    35    36   ar
    33    30    37    1
    34    37    38   ar
    35    38    39   ar
    36    39    40   ar
    37    40    41   ar
    38    41    42   ar
    39    27    28    1
    40    28    29    1
    41    22    17   ar
    42    12     6   ar
    43    29    24    1
    44    36    31   ar
    45    42    37   ar
    46     2     3    1
@<TRIPOS>MOLECULE
*****
 42 46 0 0 0
SMALL
GASTEIGER

@<TRIPOS>ATOM
      1 C         138.3968  138.4885  166.7060 C.3     1  UNL1        0.1700
      2 O         137.0300  138.7377  167.2716 O.3     1  UNL1       -0.3793
      3 H         137.0990  139.3357  168.0322 H       1  UNL1        0.2106
      4 C         139.5966  139.1371  167.3304 C.3     1  UNL1        0.2358
      5 O         139.9200  140.5692  167.0231 O.3     1  UNL1       -0.4727
      6 C         142.2388  141.1705  168.0287 C.ar    1  UNL1        0.0709
      7 C         143.0721  141.9728  168.9837 C.ar    1  UNL1        0.0355
      8 C         142.4198  142.9761  169.8880 C.ar    1  UNL1        0.1404
      9 F         143.2530  143.7784  170.8430 F       1  UNL1       -0.2042
     10 C         140.9341  143.1772  169.8374 C.ar    1  UNL1        0.0328
     11 C         140.1008  142.3749  168.8824 C.ar    1  UNL1        0.0393
     12 C         140.7532  141.3715  167.9780 C.ar    1  UNL1        0.1415
     13 O         143.1842  138.7843  167.6261 O.2     1  UNL1       -0.2912
     14 C         142.8911  140.1672  167.1244 C.2     1  UNL1        0.1764
     15 C         143.2504  140.5468  165.7184 C.3     1  UNL1        0.0739
     16 C         143.7065  141.9424  165.4115 C.3     1  UNL1        0.0345
     17 C         142.8257  142.8621  164.6189 C.ar    1  UNL1       -0.0217
     18 C         143.2880  144.2529  164.2996 C.ar    1  UNL1       -0.0043
     19 C         142.4072  145.1726  163.5070 C.ar    1  UNL1       -0.0003
     20 C         141.0641  144.7015  163.0336 C.ar    1  UNL1       -0.0000
     21 C         140.6018  143.3107  163.3529 C.ar    1  UNL1       -0.0003
     22 C         141.4826  142.3910  164.1455 C.ar    1  UNL1       -0.0043
     23 C         138.5638  137.5907  165.5160 C.3     1  UNL1        0.1056
     24 N         139.3544  138.0571  164.3297 N.3     1  UNL1       -0.2682
     25 C         138.8446  139.1878  163.4861 C.3     1  UNL1        0.0897
     26 C         139.6353  139.6541  162.2998 C.3     1  UNL1        0.0901
     27 N         140.9358  138.9899  161.9571 N.3     1  UNL1       -0.2644
     28 C         141.4456  137.8593  162.8007 C.3     1  UNL1        0.0901
     29 C         140.6549  137.3929  163.9870 C.3     1  UNL1        0.0897
     30 C         141.7264  139.4563  160.7708 C.3     1  UNL1        0.1031
     31 C         142.6471  140.6335  160.8989 C.ar    1  UNL1       -0.0036
     32 C         143.9306  140.5021  161.6642 C.ar    1  UNL1       -0.0026
     33 C         144.8512  141.6794  161.7923 C.ar    1  UNL1       -0.0003
     34 C         144.4885  142.9880  161.1552 C.ar    1  UNL1       -0.0000
     35 C         143.2052  143.1194  160.3900 C.ar    1  UNL1       -0.0003
     36 C         142.2844  141.9422  160.2618 C.ar    1  UNL1       -0.0026
     37 C         141.5965  138.7455  159.4564 C.ar    1  UNL1       -0.0036
     38 C         140.2897  138.7632  158.7201 C.ar    1  UNL1       -0.0026
     39 C         140.1597  138.0523  157.4056 C.ar    1  UNL1       -0.0003
     40 C         141.3365  137.3238  156.8274 C.ar    1  UNL1       -0.0000
     41 C         142.6433  137.3060  157.5637 C.ar    1  UNL1       -0.0003
     42 C         142.7733  138.0168  158.8781 C.ar    1  UNL1       -0.0026
@<TRIPOS>BOND
     1    13    14    2
     2    14    15    1
     3    15    16    1
     4    16    17    1
     5    17    18   ar
     6    18    19   ar
     7    19    20   ar
     8    20    21   ar
     9    21    22   ar
    10    14     6    1
    11     6     7   ar
    12     7     8   ar
    13     8     9    1
    14     8    10   ar
    15    10    11   ar
    16    11    12   ar
    17    12     5    1
    18     5     4    1
    19     4     1    1
    20     1     2    1
    21     1    23    1
    22    23    24    1
    23    24    25    1
    24    25    26    1
    25    26    27    1
    26    27    30    1
    27    30    31    1
    28    31    32   ar
    29    32    33   ar
    30    33    34   ar
    31    34    35   ar
    32    35    36   ar
    33    30    37    1
    34    37    38   ar
    35    38    39   ar
    36    39    40   ar
    37    40    41   ar
    38    41    42   ar
    39    27    28    1
    40    28    29    1
    41    22    17   ar
    42    12     6   ar
    43    29    24    1
    44    36    31   ar
    45    42    37   ar
    46     2     3    1
@<TRIPOS>MOLECULE
*****
 42 46 0 0 0
SMALL
GASTEIGER

@<TRIPOS>ATOM
      1 C         141.0761  144.9884  159.8204 C.3     1  UNL1        0.1700
      2 O         140.2956  145.5080  158.6495 O.3     1  UNL1       -0.3793
      3 H         140.6120  145.0843  157.8363 H       1  UNL1        0.2106
      4 C         142.1549  143.9677  159.6091 C.3     1  UNL1        0.2358
      5 O         141.7959  142.5727  159.1906 O.3     1  UNL1       -0.4727
      6 C         142.3502  140.0407  159.3675 C.ar    1  UNL1        0.0709
      7 C         142.8312  138.8692  160.1714 C.ar    1  UNL1        0.0355
      8 C         143.2388  139.0584  161.6025 C.ar    1  UNL1        0.1404
      9 F         143.7197  137.8870  162.4065 F       1  UNL1       -0.2042
     10 C         143.1654  140.4191  162.2297 C.ar    1  UNL1        0.0328
     11 C         142.6844  141.5905  161.4257 C.ar    1  UNL1        0.0393
     12 C         142.2768  141.4013  159.9945 C.ar    1  UNL1        0.1415
     13 O         142.7486  140.4789  156.8378 O.2     1  UNL1       -0.2912
     14 C         141.9427  139.8515  157.9364 C.2     1  UNL1        0.1764
     15 C         140.7292  139.0348  157.6038 C.3     1  UNL1        0.0739
     16 C         139.3648  139.5309  157.9812 C.3     1  UNL1        0.0345
     17 C         138.9089  139.4589  159.4085 C.ar    1  UNL1       -0.0217
     18 C         138.1085  140.5823  159.9977 C.ar    1  UNL1       -0.0043
     19 C         137.6526  140.5103  161.4249 C.ar    1  UNL1       -0.0003
     20 C         137.9971  139.3148  162.2629 C.ar    1  UNL1       -0.0000
     21 C         138.7975  138.1914  161.6737 C.ar    1  UNL1       -0.0003
     22 C         139.2534  138.2634  160.2465 C.ar    1  UNL1       -0.0043
     23 C         140.7780  145.4895  161.2024 C.3     1  UNL1        0.1056
     24 N         140.7682  144.5358  162.3601 N.3     1  UNL1       -0.2682
     25 C         139.7298  143.4559  162.4335 C.3     1  UNL1        0.0897
     26 C         139.7200  142.5022  163.5913 C.3     1  UNL1        0.0901
     27 N         140.7488  142.6283  164.6756 N.3     1  UNL1       -0.2644
     28 C         141.7872  143.7082  164.6021 C.3     1  UNL1        0.0901
     29 C         141.7970  144.6619  163.4444 C.3     1  UNL1        0.0897
     30 C         140.7390  141.6746  165.8333 C.3     1  UNL1        0.1031
     31 C         141.2738  142.1076  167.1661 C.ar    1  UNL1       -0.0036
     32 C         142.6944  141.8026  167.5393 C.ar    1  UNL1       -0.0026
     33 C         143.2292  142.2355  168.8721 C.ar    1  UNL1       -0.0003
     34 C         142.3435  142.9734  169.8319 C.ar    1  UNL1       -0.0000
     35 C         140.9230  143.2783  169.4588 C.ar    1  UNL1       -0.0003
     36 C         140.3882  142.8454  168.1259 C.ar    1  UNL1       -0.0026
     37 C         140.1945  140.2880  165.6582 C.ar    1  UNL1       -0.0036
     38 C         138.8172  139.9554  166.1505 C.ar    1  UNL1       -0.0026
     39 C         138.2727  138.5687  165.9754 C.ar    1  UNL1       -0.0003
     40 C         139.1055  137.5147  165.3079 C.ar    1  UNL1       -0.0000
     41 C         140.4828  137.8473  164.8156 C.ar    1  UNL1       -0.0003
     42 C         141.0273  139.2339  164.9907 C.ar    1  UNL1       -0.0026
@<TRIPOS>BOND
     1    13    14    2
     2    14    15    1
     3    15    16    1
     4    16    17    1
     5    17    18   ar
     6    18    19   ar
     7    19    20   ar
     8    20    21   ar
     9    21    22   ar
    10    14     6    1
    11     6     7   ar
    12     7     8   ar
    13     8     9    1
    14     8    10   ar
    15    10    11   ar
    16    11    12   ar
    17    12     5    1
    18     5     4    1
    19     4     1    1
    20     1     2    1
    21     1    23    1
    22    23    24    1
    23    24    25    1
    24    25    26    1
    25    26    27    1
    26    27    30    1
    27    30    31    1
    28    31    32   ar
    29    32    33   ar
    30    33    34   ar
    31    34    35   ar
    32    35    36   ar
    33    30    37    1
    34    37    38   ar
    35    38    39   ar
    36    39    40   ar
    37    40    41   ar
    38    41    42   ar
    39    27    28    1
    40    28    29    1
    41    22    17   ar
    42    12     6   ar
    43    29    24    1
    44    36    31   ar
    45    42    37   ar
    46     2     3    1
