@<TRIPOS>MOLECULE
*****
 28 30 0 0 0
SMALL
GASTEIGER

@<TRIPOS>ATOM
      1 C         138.8343  139.5418  166.3895 C.ar    1  UNL1        0.1070
      2 C         139.6668  140.1514  167.4781 C.ar    1  UNL1        0.0184
      3 C         140.4373  141.4116  167.2166 C.ar    1  UNL1        0.0026
      4 C         140.3752  142.0622  165.8665 C.ar    1  UNL1        0.0188
      5 C         139.5426  141.4526  164.7779 C.ar    1  UNL1        0.1122
      6 C         138.7722  140.1924  165.0394 C.ar    1  UNL1        0.0371
      7 C         141.2699  142.0212  168.3054 C.ar    1  UNL1        0.0001
      8 C         142.7019  141.6082  168.4748 C.ar    1  UNL1        0.0000
      9 C         143.5345  142.2177  169.5635 C.ar    1  UNL1        0.0000
     10 C         142.9350  143.2403  170.4828 C.ar    1  UNL1        0.0000
     11 C         141.5030  143.6533  170.3133 C.ar    1  UNL1        0.0000
     12 C         140.6704  143.0437  169.2246 C.ar    1  UNL1        0.0000
     13 C         137.2933  137.0215  166.9124 C.3     1  UNL1        0.1816
     14 S         138.0638  138.2817  166.6509 S.O2    1  UNL1        0.0105
     15 O         138.4423  137.7686  165.2932 O.2     1  UNL1       -0.1686
     16 O         137.6853  138.7948  168.0087 O.2     1  UNL1       -0.1686
     17 S         139.4805  142.1031  163.4277 S.O2    1  UNL1        0.0346
     18 O         138.0130  141.8027  163.3504 O.2     1  UNL1       -0.1637
     19 O         140.9480  142.4036  163.5050 O.2     1  UNL1       -0.1637
     20 C         139.4185  142.7537  162.0776 C.ar    1  UNL1        0.1599
     21 C         138.5222  142.3498  160.9446 C.ar    1  UNL1        0.1244
     22 N         138.7915  143.2688  159.7901 N.ar    1  UNL1       -0.2384
     23 C         139.8544  144.2407  160.2096 C.ar    1  UNL1        0.1052
     24 S         140.2418  143.9223  161.6233 S.2     1  UNL1       -0.0508
     25 C         140.4289  145.3383  159.3639 C.3     1  UNL1        0.1186
     26 N         141.9110  145.5678  159.3383 N.3     1  UNL1       -0.3157
     27 H         142.2226  145.8801  160.2579 H       1  UNL1        0.1192
     28 H         142.1326  146.2813  158.6438 H       1  UNL1        0.1192
@<TRIPOS>BOND
     1    13    14    1
     2    14    15    2
     3    14    16    2
     4    14     1    1
     5     1     2   ar
     6     2     3   ar
     7     3     7    1
     8     7     8   ar
     9     8     9   ar
    10     9    10   ar
    11    10    11   ar
    12    11    12   ar
    13     3     4   ar
    14     4     5   ar
    15     5    17    1
    16    17    18    2
    17    17    19    2
    18    17    20    1
    19    20    21   ar
    20    21    22   ar
    21    22    23   ar
    22    23    25    1
    23    25    26    1
    24    23    24   ar
    25     5     6   ar
    26     6     1   ar
    27    12     7   ar
    28    24    20   ar
    29    26    27    1
    30    26    28    1
@<TRIPOS>MOLECULE
*****
 28 30 0 0 0
SMALL
GASTEIGER

@<TRIPOS>ATOM
      1 C         139.7817  140.0754  165.3065 C.ar    1  UNL1        0.1070
      2 C         140.4081  140.5064  166.5994 C.ar    1  UNL1        0.0184
      3 C         140.9764  141.8880  166.7337 C.ar    1  UNL1        0.0026
      4 C         140.9184  142.8387  165.5749 C.ar    1  UNL1        0.0188
      5 C         140.2920  142.4078  164.2819 C.ar    1  UNL1        0.1122
      6 C         139.7236  141.0261  164.1477 C.ar    1  UNL1        0.0371
      7 C         141.6029  142.3190  168.0267 C.ar    1  UNL1        0.0001
      8 C         140.8024  143.1046  169.0227 C.ar    1  UNL1        0.0000
      9 C         141.4287  143.5356  170.3157 C.ar    1  UNL1        0.0000
     10 C         142.8557  143.1809  170.6128 C.ar    1  UNL1        0.0000
     11 C         143.6561  142.3952  169.6168 C.ar    1  UNL1        0.0000
     12 C         143.0297  141.9643  168.3238 C.ar    1  UNL1        0.0000
     13 C         138.6450  137.3121  165.0380 C.3     1  UNL1        0.1816
     14 S         139.2133  138.6938  165.1722 S.O2    1  UNL1        0.0105
     15 O         140.4189  138.2744  164.3844 O.2     1  UNL1       -0.1686
     16 O         138.0078  139.1132  165.9601 O.2     1  UNL1       -0.1686
     17 S         140.2339  143.3585  163.1231 S.O2    1  UNL1        0.0346
     18 O         140.7344  142.2777  162.2113 O.2     1  UNL1       -0.1637
     19 O         139.7334  144.4392  164.0349 O.2     1  UNL1       -0.1637
     20 C         140.1758  144.3092  161.9643 C.ar    1  UNL1        0.1599
     21 C         139.5319  145.6640  161.9668 C.ar    1  UNL1        0.1244
     22 N         139.7095  146.2641  160.6036 N.ar    1  UNL1       -0.2384
     23 C         140.4632  145.2802  159.7586 C.ar    1  UNL1        0.1052
     24 S         140.7513  144.0720  160.5996 S.2     1  UNL1       -0.0508
     25 C         140.8592  145.4710  158.3245 C.3     1  UNL1        0.1186
     26 N         142.1498  146.1573  157.9877 N.3     1  UNL1       -0.3157
     27 H         142.1035  147.1325  158.2832 H       1  UNL1        0.1192
     28 H         142.3050  146.1142  156.9805 H       1  UNL1        0.1192
@<TRIPOS>BOND
     1    13    14    1
     2    14    15    2
     3    14    16    2
     4    14     1    1
     5     1     2   ar
     6     2     3   ar
     7     3     7    1
     8     7     8   ar
     9     8     9   ar
    10     9    10   ar
    11    10    11   ar
    12    11    12   ar
    13     3     4   ar
    14     4     5   ar
    15     5    17    1
    16    17    18    2
    17    17    19    2
    18    17    20    1
    19    20    21   ar
    20    21    22   ar
    21    22    23   ar
    22    23    25    1
    23    25    26    1
    24    23    24   ar
    25     5     6   ar
    26     6     1   ar
    27    12     7   ar
    28    24    20   ar
    29    26    27    1
    30    26    28    1
@<TRIPOS>MOLECULE
*****
 28 30 0 0 0
SMALL
GASTEIGER

@<TRIPOS>ATOM
      1 C         140.6435  136.7982  155.6867 C.ar    1  UNL1        0.1070
      2 C         141.3599  135.4842  155.5859 C.ar    1  UNL1        0.0184
      3 C         142.5559  135.2139  156.4498 C.ar    1  UNL1        0.0026
      4 C         143.0355  136.2575  157.4146 C.ar    1  UNL1        0.0188
      5 C         142.3191  137.5715  157.5154 C.ar    1  UNL1        0.1122
      6 C         141.1231  137.8418  156.6514 C.ar    1  UNL1        0.0371
      7 C         143.2724  133.8998  156.3490 C.ar    1  UNL1        0.0001
      8 C         144.1382  133.4290  157.4798 C.ar    1  UNL1        0.0000
      9 C         144.8546  132.1150  157.3790 C.ar    1  UNL1        0.0000
     10 C         144.7052  131.2718  156.1474 C.ar    1  UNL1        0.0000
     11 C         143.8393  131.7426  155.0167 C.ar    1  UNL1        0.0000
     12 C         143.1229  133.0567  155.1175 C.ar    1  UNL1        0.0000
     13 C         138.2514  137.3388  153.9588 C.3     1  UNL1        0.1816
     14 S         139.4474  137.0685  154.8227 S.O2    1  UNL1        0.0105
     15 O         140.3366  137.1503  153.6174 O.2     1  UNL1       -0.1686
     16 O         138.5583  136.9867  156.0280 O.2     1  UNL1       -0.1686
     17 S         142.7987  138.6152  158.4801 S.O2    1  UNL1        0.0346
     18 O         143.8153  139.0749  157.4775 O.2     1  UNL1       -0.1637
     19 O         141.7822  138.1555  159.4827 O.2     1  UNL1       -0.1637
     20 C         143.2783  139.6588  159.4449 C.ar    1  UNL1        0.1599
     21 C         143.2330  141.1431  159.2326 C.ar    1  UNL1        0.1244
     22 N         143.8140  141.8030  160.4479 N.ar    1  UNL1       -0.2384
     23 C         144.2185  140.7266  161.4112 C.ar    1  UNL1        0.1052
     24 S         143.8874  139.4015  160.7913 S.2     1  UNL1       -0.0508
     25 C         144.8442  140.9383  162.7579 C.3     1  UNL1        0.1186
     26 N         146.0290  141.8471  162.9000 N.3     1  UNL1       -0.3157
     27 H         146.8252  141.4480  162.4027 H       1  UNL1        0.1192
     28 H         146.2620  141.9502  163.8876 H       1  UNL1        0.1192
@<TRIPOS>BOND
     1    13    14    1
     2    14    15    2
     3    14    16    2
     4    14     1    1
     5     1     2   ar
     6     2     3   ar
     7     3     7    1
     8     7     8   ar
     9     8     9   ar
    10     9    10   ar
    11    10    11   ar
    12    11    12   ar
    13     3     4   ar
    14     4     5   ar
    15     5    17    1
    16    17    18    2
    17    17    19    2
    18    17    20    1
    19    20    21   ar
    20    21    22   ar
    21    22    23   ar
    22    23    25    1
    23    25    26    1
    24    23    24   ar
    25     5     6   ar
    26     6     1   ar
    27    12     7   ar
    28    24    20   ar
    29    26    27    1
    30    26    28    1
@<TRIPOS>MOLECULE
*****
 28 30 0 0 0
SMALL
GASTEIGER

@<TRIPOS>ATOM
      1 C         143.0743  140.8306  165.0390 C.ar    1  UNL1        0.1070
      2 C         142.4272  140.9113  166.3898 C.ar    1  UNL1        0.0184
      3 C         141.3233  141.8969  166.6349 C.ar    1  UNL1        0.0026
      4 C         140.8664  142.8016  165.5292 C.ar    1  UNL1        0.0188
      5 C         141.5135  142.7208  164.1784 C.ar    1  UNL1        0.1122
      6 C         142.6174  141.7353  163.9333 C.ar    1  UNL1        0.0371
      7 C         140.6762  141.9776  167.9858 C.ar    1  UNL1        0.0001
      8 C         140.7805  143.2375  168.7932 C.ar    1  UNL1        0.0000
      9 C         140.1334  143.3183  170.1441 C.ar    1  UNL1        0.0000
     10 C         139.3822  142.1391  170.6876 C.ar    1  UNL1        0.0000
     11 C         139.2779  140.8793  169.8802 C.ar    1  UNL1        0.0000
     12 C         139.9250  140.7985  168.5293 C.ar    1  UNL1        0.0000
     13 C         145.2822  138.8595  164.5488 C.3     1  UNL1        0.1816
     14 S         144.1782  139.8450  164.7939 S.O2    1  UNL1        0.0105
     15 O         143.2721  138.7257  165.2135 O.2     1  UNL1       -0.1686
     16 O         145.0843  140.9644  164.3743 O.2     1  UNL1       -0.1686
     17 S         141.0566  143.6256  163.0726 S.O2    1  UNL1        0.0346
     18 O         140.4627  144.5612  164.0834 O.2     1  UNL1       -0.1637
     19 O         141.6505  142.6900  162.0618 O.2     1  UNL1       -0.1637
     20 C         140.5998  144.5303  161.9668 C.ar    1  UNL1        0.1599
     21 C         139.7588  145.7621  162.1261 C.ar    1  UNL1        0.1244
     22 N         139.5430  146.3552  160.7653 N.ar    1  UNL1       -0.2384
     23 C         140.2507  145.4899  159.7650 C.ar    1  UNL1        0.1052
     24 S         140.9038  144.3621  160.5076 S.2     1  UNL1       -0.0508
     25 C         140.2971  145.7132  158.2825 C.3     1  UNL1        0.1186
     26 N         141.5617  146.1955  157.6359 N.3     1  UNL1       -0.3157
     27 H         141.7687  147.1411  157.9575 H       1  UNL1        0.1192
     28 H         141.4455  146.1988  156.6225 H       1  UNL1        0.1192
@<TRIPOS>BOND
     1    13    14    1
     2    14    15    2
     3    14    16    2
     4    14     1    1
     5     1     2   ar
     6     2     3   ar
     7     3     7    1
     8     7     8   ar
     9     8     9   ar
    10     9    10   ar
    11    10    11   ar
    12    11    12   ar
    13     3     4   ar
    14     4     5   ar
    15     5    17    1
    16    17    18    2
    17    17    19    2
    18    17    20    1
    19    20    21   ar
    20    21    22   ar
    21    22    23   ar
    22    23    25    1
    23    25    26    1
    24    23    24   ar
    25     5     6   ar
    26     6     1   ar
    27    12     7   ar
    28    24    20   ar
    29    26    27    1
    30    26    28    1
@<TRIPOS>MOLECULE
*****
 28 30 0 0 0
SMALL
GASTEIGER

@<TRIPOS>ATOM
      1 C         140.3754  143.4806  162.6699 C.ar    1  UNL1        0.1070
      2 C         140.8677  142.4528  161.6945 C.ar    1  UNL1        0.0184
      3 C         141.2016  141.0691  162.1677 C.ar    1  UNL1        0.0026
      4 C         141.0432  140.7132  163.6162 C.ar    1  UNL1        0.0188
      5 C         140.5509  141.7409  164.5915 C.ar    1  UNL1        0.1122
      6 C         140.2170  143.1246  164.1184 C.ar    1  UNL1        0.0371
      7 C         141.6939  140.0413  161.1923 C.ar    1  UNL1        0.0001
      8 C         140.9762  139.8381  159.8909 C.ar    1  UNL1        0.0000
      9 C         141.4685  138.8104  158.9155 C.ar    1  UNL1        0.0000
     10 C         142.6784  137.9857  159.2415 C.ar    1  UNL1        0.0000
     11 C         143.3960  138.1889  160.5429 C.ar    1  UNL1        0.0000
     12 C         142.9037  139.2167  161.5184 C.ar    1  UNL1        0.0000
     13 C         139.7076  146.2480  161.7235 C.3     1  UNL1        0.1816
     14 S         140.0415  144.8643  162.1967 S.O2    1  UNL1        0.0105
     15 O         138.9099  144.3124  161.3813 O.2     1  UNL1       -0.1686
     16 O         141.1731  145.4162  163.0121 O.2     1  UNL1       -0.1686
     17 S         140.3925  141.3850  166.0401 S.O2    1  UNL1        0.0346
     18 O         140.1353  139.9567  165.6611 O.2     1  UNL1       -0.1637
     19 O         140.6498  142.8134  166.4191 O.2     1  UNL1       -0.1637
     20 C         140.2341  141.0292  167.4886 C.ar    1  UNL1        0.1599
     21 C         139.3782  139.9262  168.0371 C.ar    1  UNL1        0.1244
     22 N         139.5190  139.9292  169.5305 N.ar    1  UNL1       -0.2384
     23 C         140.4619  141.0341  169.9050 C.ar    1  UNL1        0.1052
     24 S         140.9038  141.7139  168.6430 S.2     1  UNL1       -0.0508
     25 C         140.8879  141.3957  171.2970 C.3     1  UNL1        0.1186
     26 N         142.1350  140.7985  171.8786 N.3     1  UNL1       -0.3157
     27 H         142.0083  139.7930  171.9946 H       1  UNL1        0.1192
     28 H         142.3246  141.2242  172.7859 H       1  UNL1        0.1192
@<TRIPOS>BOND
     1    13    14    1
     2    14    15    2
     3    14    16    2
     4    14     1    1
     5     1     2   ar
     6     2     3   ar
     7     3     7    1
     8     7     8   ar
     9     8     9   ar
    10     9    10   ar
    11    10    11   ar
    12    11    12   ar
    13     3     4   ar
    14     4     5   ar
    15     5    17    1
    16    17    18    2
    17    17    19    2
    18    17    20    1
    19    20    21   ar
    20    21    22   ar
    21    22    23   ar
    22    23    25    1
    23    25    26    1
    24    23    24   ar
    25     5     6   ar
    26     6     1   ar
    27    12     7   ar
    28    24    20   ar
    29    26    27    1
    30    26    28    1
@<TRIPOS>MOLECULE
*****
 28 30 0 0 0
SMALL
GASTEIGER

@<TRIPOS>ATOM
      1 C         139.9244  143.8965  163.3984 C.ar    1  UNL1        0.1070
      2 C         140.9928  142.9526  163.8648 C.ar    1  UNL1        0.0184
      3 C         142.1074  142.5649  162.9389 C.ar    1  UNL1        0.0026
      4 C         142.1537  143.1211  161.5466 C.ar    1  UNL1        0.0188
      5 C         141.0853  144.0650  161.0803 C.ar    1  UNL1        0.1122
      6 C         139.9707  144.4527  162.0062 C.ar    1  UNL1        0.0371
      7 C         143.1758  141.6209  163.4053 C.ar    1  UNL1        0.0001
      8 C         142.8169  140.2205  163.8054 C.ar    1  UNL1        0.0000
      9 C         143.8852  139.2765  164.2718 C.ar    1  UNL1        0.0000
     10 C         145.3126  139.7329  164.3382 C.ar    1  UNL1        0.0000
     11 C         145.6715  141.1333  163.9381 C.ar    1  UNL1        0.0000
     12 C         144.6031  142.0773  163.4717 C.ar    1  UNL1        0.0000
     13 C         137.6952  144.6719  165.2502 C.3     1  UNL1        0.1816
     14 S         138.8098  144.2842  164.3243 S.O2    1  UNL1        0.0105
     15 O         139.6768  143.9586  165.5043 O.2     1  UNL1       -0.1686
     16 O         137.9428  144.6098  163.1443 O.2     1  UNL1       -0.1686
     17 S         141.1315  144.6213  159.6879 S.O2    1  UNL1        0.0346
     18 O         142.5736  144.2237  159.5769 O.2     1  UNL1       -0.1637
     19 O         139.6894  145.0188  159.7990 O.2     1  UNL1       -0.1637
     20 C         141.1777  145.1775  158.2957 C.ar    1  UNL1        0.1599
     21 C         142.3039  145.0152  157.3182 C.ar    1  UNL1        0.1244
     22 N         141.9280  145.7311  156.0549 N.ar    1  UNL1       -0.2384
     23 C         140.5694  146.3359  156.2515 C.ar    1  UNL1        0.1052
     24 S         140.1058  145.9938  157.6364 S.2     1  UNL1       -0.0508
     25 C         139.8082  147.1415  155.2407 C.3     1  UNL1        0.1186
     26 N         138.5733  147.8870  155.6518 N.3     1  UNL1       -0.3157
     27 H         137.8483  147.2218  155.9209 H       1  UNL1        0.1192
     28 H         138.2421  148.4532  154.8708 H       1  UNL1        0.1192
@<TRIPOS>BOND
     1    13    14    1
     2    14    15    2
     3    14    16    2
     4    14     1    1
     5     1     2   ar
     6     2     3   ar
     7     3     7    1
     8     7     8   ar
     9     8     9   ar
    10     9    10   ar
    11    10    11   ar
    12    11    12   ar
    13     3     4   ar
    14     4     5   ar
    15     5    17    1
    16    17    18    2
    17    17    19    2
    18    17    20    1
    19    20    21   ar
    20    21    22   ar
    21    22    23   ar
    22    23    25    1
    23    25    26    1
    24    23    24   ar
    25     5     6   ar
    26     6     1   ar
    27    12     7   ar
    28    24    20   ar
    29    26    27    1
    30    26    28    1
@<TRIPOS>MOLECULE
*****
 28 30 0 0 0
SMALL
GASTEIGER

@<TRIPOS>ATOM
      1 C         139.9098  143.3184  162.4020 C.ar    1  UNL1        0.1070
      2 C         139.6449  142.7708  163.7731 C.ar    1  UNL1        0.0184
      3 C         139.7152  141.2924  164.0167 C.ar    1  UNL1        0.0026
      4 C         140.0504  140.3616  162.8893 C.ar    1  UNL1        0.0188
      5 C         140.3152  140.9092  161.5182 C.ar    1  UNL1        0.1122
      6 C         140.2449  142.3876  161.2746 C.ar    1  UNL1        0.0371
      7 C         139.4503  140.7448  165.3879 C.ar    1  UNL1        0.0001
      8 C         140.1571  141.3255  166.5768 C.ar    1  UNL1        0.0000
      9 C         139.8922  140.7779  167.9479 C.ar    1  UNL1        0.0000
     10 C         138.9206  139.6497  168.1302 C.ar    1  UNL1        0.0000
     11 C         138.2139  139.0690  166.9413 C.ar    1  UNL1        0.0000
     12 C         138.4788  139.6166  165.5702 C.ar    1  UNL1        0.0000
     13 C         139.7692  146.2753  161.9148 C.3     1  UNL1        0.1816
     14 S         139.8395  144.7968  162.1584 S.O2    1  UNL1        0.0105
     15 O         139.2601  144.5451  160.7979 O.2     1  UNL1       -0.1686
     16 O         140.4190  145.0486  163.5189 O.2     1  UNL1       -0.1686
     17 S         140.6504  139.9784  160.3906 S.O2    1  UNL1        0.0346
     18 O         141.4282  141.0713  159.7195 O.2     1  UNL1       -0.1637
     19 O         139.8726  138.8854  161.0617 O.2     1  UNL1       -0.1637
     20 C         140.9855  139.0476  159.2631 C.ar    1  UNL1        0.1599
     21 C         142.2955  138.3462  159.0585 C.ar    1  UNL1        0.1244
     22 N         142.1891  137.5198  157.8112 N.ar    1  UNL1       -0.2384
     23 C         140.8132  137.7105  157.2449 C.ar    1  UNL1        0.1052
     24 S         140.0694  138.6547  158.1423 S.2     1  UNL1       -0.0508
     25 C         140.2756  137.0696  155.9999 C.3     1  UNL1        0.1186
     26 N         138.8304  136.6753  155.9233 N.3     1  UNL1       -0.3157
     27 H         138.6457  135.9285  156.5931 H       1  UNL1        0.1192
     28 H         138.6168  136.3476  154.9813 H       1  UNL1        0.1192
@<TRIPOS>BOND
     1    13    14    1
     2    14    15    2
     3    14    16    2
     4    14     1    1
     5     1     2   ar
     6     2     3   ar
     7     3     7    1
     8     7     8   ar
     9     8     9   ar
    10     9    10   ar
    11    10    11   ar
    12    11    12   ar
    13     3     4   ar
    14     4     5   ar
    15     5    17    1
    16    17    18    2
    17    17    19    2
    18    17    20    1
    19    20    21   ar
    20    21    22   ar
    21    22    23   ar
    22    23    25    1
    23    25    26    1
    24    23    24   ar
    25     5     6   ar
    26     6     1   ar
    27    12     7   ar
    28    24    20   ar
    29    26    27    1
    30    26    28    1
@<TRIPOS>MOLECULE
*****
 28 30 0 0 0
SMALL
GASTEIGER

@<TRIPOS>ATOM
      1 C         138.1851  144.4115  155.6156 C.ar    1  UNL1        0.1070
      2 C         138.1901  145.8366  155.1478 C.ar    1  UNL1        0.0184
      3 C         139.1346  146.8252  155.7649 C.ar    1  UNL1        0.0026
      4 C         140.0739  146.3886  156.8498 C.ar    1  UNL1        0.0188
      5 C         140.0689  144.9634  157.3175 C.ar    1  UNL1        0.1122
      6 C         139.1245  143.9749  156.7004 C.ar    1  UNL1        0.0371
      7 C         139.1396  148.2504  155.2971 C.ar    1  UNL1        0.0001
      8 C         138.4944  149.3162  156.1325 C.ar    1  UNL1        0.0000
      9 C         138.4994  150.7414  155.6648 C.ar    1  UNL1        0.0000
     10 C         139.1496  151.1008  154.3616 C.ar    1  UNL1        0.0000
     11 C         139.7947  150.0351  153.5262 C.ar    1  UNL1        0.0000
     12 C         139.7897  148.6098  153.9940 C.ar    1  UNL1        0.0000
     13 C         136.2963  142.4343  154.3813 C.3     1  UNL1        0.1816
     14 S         137.2407  143.4229  154.9985 S.O2    1  UNL1        0.0105
     15 O         137.5922  143.9386  153.6344 O.2     1  UNL1       -0.1686
     16 O         136.8892  142.9072  156.3625 O.2     1  UNL1       -0.1686
     17 S         141.0083  144.5268  158.4024 S.O2    1  UNL1        0.0346
     18 O         141.7119  145.8492  158.3255 O.2     1  UNL1       -0.1637
     19 O         140.3047  143.2043  158.4793 O.2     1  UNL1       -0.1637
     20 C         141.9476  144.0901  159.4873 C.ar    1  UNL1        0.1599
     21 C         141.9282  144.5591  160.9119 C.ar    1  UNL1        0.1244
     22 N         143.0399  143.8666  161.6431 N.ar    1  UNL1       -0.2384
     23 C         143.7463  142.9696  160.6703 C.ar    1  UNL1        0.1052
     24 S         143.0712  143.1077  159.3379 S.2     1  UNL1       -0.0508
     25 C         144.9215  142.0890  160.9762 C.3     1  UNL1        0.1186
     26 N         145.6101  142.1918  162.3048 N.3     1  UNL1       -0.3157
     27 H         146.0556  143.1057  162.3870 H       1  UNL1        0.1192
     28 H         146.3175  141.4608  162.3786 H       1  UNL1        0.1192
@<TRIPOS>BOND
     1    13    14    1
     2    14    15    2
     3    14    16    2
     4    14     1    1
     5     1     2   ar
     6     2     3   ar
     7     3     7    1
     8     7     8   ar
     9     8     9   ar
    10     9    10   ar
    11    10    11   ar
    12    11    12   ar
    13     3     4   ar
    14     4     5   ar
    15     5    17    1
    16    17    18    2
    17    17    19    2
    18    17    20    1
    19    20    21   ar
    20    21    22   ar
    21    22    23   ar
    22    23    25    1
    23    25    26    1
    24    23    24   ar
    25     5     6   ar
    26     6     1   ar
    27    12     7   ar
    28    24    20   ar
    29    26    27    1
    30    26    28    1
@<TRIPOS>MOLECULE
*****
 28 30 0 0 0
SMALL
GASTEIGER

@<TRIPOS>ATOM
      1 C         143.4360  140.2035  162.9065 C.ar    1  UNL1        0.1070
      2 C         142.3983  139.9393  163.9568 C.ar    1  UNL1        0.0184
      3 C         141.1430  139.1989  163.6015 C.ar    1  UNL1        0.0026
      4 C         140.9255  138.7229  162.1958 C.ar    1  UNL1        0.0188
      5 C         141.9632  138.9871  161.1455 C.ar    1  UNL1        0.1122
      6 C         143.2185  139.7274  161.5008 C.ar    1  UNL1        0.0371
      7 C         140.1053  138.9347  164.6519 C.ar    1  UNL1        0.0001
      8 C         139.3289  137.6514  164.6331 C.ar    1  UNL1        0.0000
      9 C         138.2912  137.3871  165.6835 C.ar    1  UNL1        0.0000
     10 C         138.0298  138.4062  166.7527 C.ar    1  UNL1        0.0000
     11 C         138.8061  139.6896  166.7715 C.ar    1  UNL1        0.0000
     12 C         139.8439  139.9538  165.7210 C.ar    1  UNL1        0.0000
     13 C         145.9465  141.6841  163.6172 C.3     1  UNL1        0.1816
     14 S         144.6913  140.9438  163.2618 S.O2    1  UNL1        0.0105
     15 O         144.3354  142.0192  162.2784 O.2     1  UNL1       -0.1686
     16 O         145.0471  139.8685  164.2452 O.2     1  UNL1       -0.1686
     17 S         141.7457  138.5110  159.7397 S.O2    1  UNL1        0.0346
     18 O         143.1241  137.9197  159.7266 O.2     1  UNL1       -0.1637
     19 O         140.3673  139.1024  159.7527 O.2     1  UNL1       -0.1637
     20 C         141.5282  138.0350  158.3340 C.ar    1  UNL1        0.1599
     21 C         142.5397  137.3390  157.4723 C.ar    1  UNL1        0.1244
     22 N         141.8976  137.0452  156.1489 N.ar    1  UNL1       -0.2384
     23 C         140.4892  137.5596  156.1927 C.ar    1  UNL1        0.1052
     24 S         140.2609  138.1713  157.5432 S.2     1  UNL1       -0.0508
     25 C         139.4854  137.4769  155.0812 C.3     1  UNL1        0.1186
     26 N         138.0388  137.2326  155.3937 N.3     1  UNL1       -0.3157
     27 H         137.9298  136.2999  155.7919 H       1  UNL1        0.1192
     28 H         137.4893  137.3029  154.5372 H       1  UNL1        0.1192
@<TRIPOS>BOND
     1    13    14    1
     2    14    15    2
     3    14    16    2
     4    14     1    1
     5     1     2   ar
     6     2     3   ar
     7     3     7    1
     8     7     8   ar
     9     8     9   ar
    10     9    10   ar
    11    10    11   ar
    12    11    12   ar
    13     3     4   ar
    14     4     5   ar
    15     5    17    1
    16    17    18    2
    17    17    19    2
    18    17    20    1
    19    20    21   ar
    20    21    22   ar
    21    22    23   ar
    22    23    25    1
    23    25    26    1
    24    23    24   ar
    25     5     6   ar
    26     6     1   ar
    27    12     7   ar
    28    24    20   ar
    29    26    27    1
    30    26    28    1
