@<TRIPOS>MOLECULE
*****
 42 49 0 0 0
SMALL
GASTEIGER

@<TRIPOS>ATOM
      1 C         139.4838  141.0710  159.4307 C.3     1  UNL1        0.1558
      2 N         139.7229  139.7317  158.7988 N.3     1  UNL1       -0.2809
      3 C         140.2364  139.6471  157.3920 C.3     1  UNL1        0.1166
      4 C         140.5109  140.9017  156.6170 C.3     1  UNL1        0.0511
      5 C         140.2718  142.2410  157.2489 C.2     1  UNL1       -0.0037
      6 C         139.7583  142.3256  158.6557 C.2     1  UNL1        0.0784
      7 N         139.6191  143.7760  159.0118 N.2     1  UNL1       -0.2519
      8 C         140.0465  144.5879  157.8251 C.2     1  UNL1        0.0627
      9 C         140.1205  146.0684  157.5958 C.3     1  UNL1        0.0717
     10 C         140.5979  146.6001  156.2771 C.2     1  UNL1       -0.0198
     11 C         141.0013  145.6514  155.1875 C.2     1  UNL1       -0.0042
     12 C         140.9273  144.1709  155.4167 C.2     1  UNL1        0.0006
     13 C         140.4499  143.6391  156.7355 C.2     1  UNL1        0.0111
     14 H         138.8327  139.2341  158.8178 H       1  UNL1        0.1245
     15 C         139.7516  144.5471  163.3961 C.3     1  UNL1        0.0978
     16 C         139.2266  143.6963  162.2779 C.ar    1  UNL1        0.2369
     17 N         140.0260  142.7294  161.4557 N.ar    1  UNL1       -0.1928
     18 C         139.1036  142.0985  160.4552 C.ar    1  UNL1        0.2023
     19 N         137.7341  142.6755  160.6590 N.ar    1  UNL1       -0.0586
     20 O         137.8101  143.6630  161.7855 O.2     1  UNL1       -0.3373
     21 C         140.4755  138.3078  156.7601 C.ar    1  UNL1        0.1319
     22 N         141.6138  137.3798  157.0650 N.ar    1  UNL1       -0.2282
     23 C         141.4601  136.1599  156.2058 C.ar    1  UNL1        0.1171
     24 C         140.2268  136.3340  155.3699 C.ar    1  UNL1        0.0942
     25 N         139.6183  137.6615  155.7125 N.ar    1  UNL1       -0.3385
     26 H         138.8000  138.0419  155.3189 H       1  UNL1        0.1672
     27 C         142.3785  134.9740  156.1859 C.ar    1  UNL1        0.1006
     28 C         142.3941  134.0573  154.9987 C.ar    1  UNL1        0.0230
     29 C         143.3125  132.8715  154.9788 C.ar    1  UNL1        0.0328
     30 C         144.2151  132.6023  156.1461 C.ar    1  UNL1        0.1592
     31 F         145.1335  131.4165  156.1263 F       1  UNL1       -0.2025
     32 C         144.1995  133.5190  157.3333 C.ar    1  UNL1        0.1284
     33 N         143.2811  134.7048  157.3532 N.ar    1  UNL1       -0.2399
     34 C         139.0773  140.1732  160.5615 C.ar    1  UNL1        0.0423
     35 C         137.7206  139.5652  160.7606 C.ar    1  UNL1        0.1194
     36 N         137.7610  138.7420  162.0139 N.ar    1  UNL1       -0.1679
     37 N         139.1426  138.8413  162.5894 N.ar    1  UNL1       -0.2497
     38 C         139.9562  139.7259  161.6918 C.ar    1  UNL1        0.0944
     39 C         139.6259  138.1734  163.8425 C.3     1  UNL1        0.1274
     40 C         138.8337  138.2948  165.1105 C.3     1  UNL1        0.0244
     41 C         138.1016  137.6525  166.2513 C.3     1  UNL1        0.0021
     42 C         138.1938  139.1472  166.1659 C.3     1  UNL1        0.0021
@<TRIPOS>BOND
     1    15    16    1
     2    16    17   ar
     3    17    18   ar
     4     1    18    1
     5     1    34    1
     6    34    35   ar
     7    35    36   ar
     8    36    37   ar
     9    37    39    1
    10    39    40    1
    11    40    41    1
    12    41    42    1
    13    37    38   ar
    14     1     2    1
    15     2     3    1
    16     3    21    1
    17    21    22   ar
    18    22    23   ar
    19    23    27    1
    20    27    28   ar
    21    28    29   ar
    22    29    30   ar
    23    30    31    1
    24    30    32   ar
    25    32    33   ar
    26    23    24   ar
    27    24    25   ar
    28     3     4    1
    29     4     5    1
    30     5     6    2
    31     6     7    1
    32     7     8    2
    33     8     9    1
    34     9    10    1
    35    10    11    2
    36    11    12    1
    37    12    13    2
    38    18    19   ar
    39    19    20   ar
    40    20    16   ar
    41     6     1    1
    42    13     8    1
    43    38    34   ar
    44    25    21   ar
    45    13     5    1
    46    42    40    1
    47    33    27   ar
    48     2    14    1
    49    25    26    1
@<TRIPOS>MOLECULE
*****
 42 49 0 0 0
SMALL
GASTEIGER

@<TRIPOS>ATOM
      1 C         140.6395  140.8986  160.0463 C.3     1  UNL1        0.1558
      2 N         141.0018  139.8406  159.0467 N.3     1  UNL1       -0.2809
      3 C         142.3608  139.2067  159.0848 C.3     1  UNL1        0.1166
      4 C         143.3574  139.6309  160.1226 C.3     1  UNL1        0.0511
      5 C         142.9950  140.6890  161.1221 C.2     1  UNL1       -0.0037
      6 C         141.6361  141.3228  161.0840 C.2     1  UNL1        0.0784
      7 N         141.5644  142.3326  162.1909 N.2     1  UNL1       -0.2519
      8 C         142.8791  142.3228  162.9131 C.2     1  UNL1        0.0627
      9 C         143.3853  143.1076  164.0869 C.3     1  UNL1        0.0717
     10 C         144.7757  142.8766  164.6001 C.2     1  UNL1       -0.0198
     11 C         145.6598  141.8607  163.9396 C.2     1  UNL1       -0.0042
     12 C         145.1536  141.0759  162.7658 C.2     1  UNL1        0.0006
     13 C         143.7633  141.3070  162.2526 C.2     1  UNL1        0.0111
     14 H         140.8986  140.2605  158.1229 H       1  UNL1        0.1245
     15 C         137.4743  143.2406  163.5643 C.3     1  UNL1        0.0978
     16 C         138.3790  143.0109  162.3902 C.ar    1  UNL1        0.2369
     17 N         139.0121  141.7061  162.0070 N.ar    1  UNL1       -0.1928
     18 C         139.8339  141.9344  160.7732 C.ar    1  UNL1        0.2023
     19 N         139.7087  143.3801  160.3937 N.ar    1  UNL1       -0.0586
     20 O         138.8095  144.0455  161.3931 O.2     1  UNL1       -0.3373
     21 C         142.7232  138.1486  158.0852 C.ar    1  UNL1        0.1319
     22 N         142.4162  136.6849  158.2003 N.ar    1  UNL1       -0.2282
     23 C         142.9594  136.0001  156.9813 C.ar    1  UNL1        0.1171
     24 C         143.6021  137.0406  156.1128 C.ar    1  UNL1        0.0942
     25 N         143.4561  138.3685  156.7951 N.ar    1  UNL1       -0.3385
     26 H         143.7837  139.2326  156.4557 H       1  UNL1        0.1672
     27 C         142.8748  134.5324  156.6832 C.ar    1  UNL1        0.1006
     28 C         141.8797  134.0268  155.6811 C.ar    1  UNL1        0.0230
     29 C         141.7951  132.5592  155.3829 C.ar    1  UNL1        0.0328
     30 C         142.7055  131.5972  156.0868 C.ar    1  UNL1        0.1592
     31 F         142.6209  130.1295  155.7887 F       1  UNL1       -0.2025
     32 C         143.7007  132.1028  157.0889 C.ar    1  UNL1        0.1284
     33 N         143.7853  133.5704  157.3870 N.ar    1  UNL1       -0.2399
     34 C         139.3631  140.8342  159.2610 C.ar    1  UNL1        0.0423
     35 C         138.1568  140.0117  159.6051 C.ar    1  UNL1        0.1194
     36 N         137.1171  140.2501  158.5505 N.ar    1  UNL1       -0.1679
     37 N         137.6808  141.2199  157.5546 N.ar    1  UNL1       -0.2497
     38 C         139.0689  141.5809  157.9937 C.ar    1  UNL1        0.0944
     39 C         136.9795  141.7377  156.3340 C.3     1  UNL1        0.1274
     40 C         135.7200  141.0781  155.8561 C.3     1  UNL1        0.0244
     41 C         134.8809  140.5375  154.7364 C.3     1  UNL1        0.0021
     42 C         134.3774  140.4762  156.1480 C.3     1  UNL1        0.0021
@<TRIPOS>BOND
     1    15    16    1
     2    16    17   ar
     3    17    18   ar
     4     1    18    1
     5     1    34    1
     6    34    35   ar
     7    35    36   ar
     8    36    37   ar
     9    37    39    1
    10    39    40    1
    11    40    41    1
    12    41    42    1
    13    37    38   ar
    14     1     2    1
    15     2     3    1
    16     3    21    1
    17    21    22   ar
    18    22    23   ar
    19    23    27    1
    20    27    28   ar
    21    28    29   ar
    22    29    30   ar
    23    30    31    1
    24    30    32   ar
    25    32    33   ar
    26    23    24   ar
    27    24    25   ar
    28     3     4    1
    29     4     5    1
    30     5     6    2
    31     6     7    1
    32     7     8    2
    33     8     9    1
    34     9    10    1
    35    10    11    2
    36    11    12    1
    37    12    13    2
    38    18    19   ar
    39    19    20   ar
    40    20    16   ar
    41     6     1    1
    42    13     8    1
    43    38    34   ar
    44    25    21   ar
    45    13     5    1
    46    42    40    1
    47    33    27   ar
    48     2    14    1
    49    25    26    1
@<TRIPOS>MOLECULE
*****
 42 49 0 0 0
SMALL
GASTEIGER

@<TRIPOS>ATOM
      1 C         141.5683  142.0325  161.6320 C.3     1  UNL1        0.1558
      2 N         141.8138  141.3066  160.3425 N.3     1  UNL1       -0.2809
      3 C         142.3973  139.9249  160.3591 C.3     1  UNL1        0.1166
      4 C         142.7353  139.2690  161.6651 C.3     1  UNL1        0.0511
      5 C         142.4898  139.9949  162.9545 C.2     1  UNL1       -0.0037
      6 C         141.9063  141.3766  162.9380 C.2     1  UNL1        0.0784
      7 N         141.7768  141.8421  164.3581 N.2     1  UNL1       -0.2519
      8 C         142.2802  140.7480  165.2522 C.2     1  UNL1        0.0627
      9 C         142.3943  140.6438  166.7442 C.3     1  UNL1        0.0717
     10 C         142.9491  139.3980  167.3688 C.2     1  UNL1       -0.0198
     11 C         143.3897  138.2563  166.5013 C.2     1  UNL1       -0.0042
     12 C         143.2756  138.3605  165.0093 C.2     1  UNL1        0.0006
     13 C         142.7209  139.6063  164.3848 C.2     1  UNL1        0.0111
     14 H         142.4477  141.8874  159.7937 H       1  UNL1        0.1245
     15 C         138.7617  144.9072  165.0583 C.3     1  UNL1        0.0978
     16 C         139.8657  144.4384  164.1576 C.ar    1  UNL1        0.2369
     17 N         139.8532  143.1922  163.3227 N.ar    1  UNL1       -0.1928
     18 C         141.1556  143.1170  162.5827 C.ar    1  UNL1        0.2023
     19 N         141.9732  144.3166  162.9600 N.ar    1  UNL1       -0.0586
     20 O         141.1759  145.1333  163.9334 O.2     1  UNL1       -0.3373
     21 C         142.6428  139.1989  159.0695 C.ar    1  UNL1        0.1319
     22 N         142.6196  137.7115  158.8769 N.ar    1  UNL1       -0.2282
     23 C         142.9170  137.4262  157.4347 C.ar    1  UNL1        0.1171
     24 C         143.1241  138.7373  156.7359 C.ar    1  UNL1        0.0942
     25 N         142.9546  139.8329  157.7463 N.ar    1  UNL1       -0.3385
     26 H         143.0340  140.7985  157.5717 H       1  UNL1        0.1672
     27 C         142.9940  136.0682  156.8022 C.ar    1  UNL1        0.1006
     28 C         142.7556  135.9122  155.3295 C.ar    1  UNL1        0.0230
     29 C         142.8325  134.5543  154.6970 C.ar    1  UNL1        0.0328
     30 C         143.1478  133.3524  155.5372 C.ar    1  UNL1        0.1592
     31 F         143.2247  131.9944  154.9047 F       1  UNL1       -0.2025
     32 C         143.3862  133.5084  157.0099 C.ar    1  UNL1        0.1284
     33 N         143.3093  134.8663  157.6424 N.ar    1  UNL1       -0.2399
     34 C         141.0870  143.0650  160.6562 C.ar    1  UNL1        0.0423
     35 C         139.6555  143.4201  160.3827 C.ar    1  UNL1        0.1194
     36 N         139.6365  144.4983  159.3400 N.ar    1  UNL1       -0.1679
     37 N         141.0562  144.8095  158.9690 N.ar    1  UNL1       -0.2497
     38 C         141.9526  143.9237  159.7825 C.ar    1  UNL1        0.0944
     39 C         141.5013  145.8277  157.9615 C.3     1  UNL1        0.1274
     40 C         140.5867  146.2229  156.8402 C.3     1  UNL1        0.0244
     41 C         140.1938  146.1430  155.3948 C.3     1  UNL1        0.0021
     42 C         139.3955  146.9873  156.3435 C.3     1  UNL1        0.0021
@<TRIPOS>BOND
     1    15    16    1
     2    16    17   ar
     3    17    18   ar
     4     1    18    1
     5     1    34    1
     6    34    35   ar
     7    35    36   ar
     8    36    37   ar
     9    37    39    1
    10    39    40    1
    11    40    41    1
    12    41    42    1
    13    37    38   ar
    14     1     2    1
    15     2     3    1
    16     3    21    1
    17    21    22   ar
    18    22    23   ar
    19    23    27    1
    20    27    28   ar
    21    28    29   ar
    22    29    30   ar
    23    30    31    1
    24    30    32   ar
    25    32    33   ar
    26    23    24   ar
    27    24    25   ar
    28     3     4    1
    29     4     5    1
    30     5     6    2
    31     6     7    1
    32     7     8    2
    33     8     9    1
    34     9    10    1
    35    10    11    2
    36    11    12    1
    37    12    13    2
    38    18    19   ar
    39    19    20   ar
    40    20    16   ar
    41     6     1    1
    42    13     8    1
    43    38    34   ar
    44    25    21   ar
    45    13     5    1
    46    42    40    1
    47    33    27   ar
    48     2    14    1
    49    25    26    1
@<TRIPOS>MOLECULE
*****
 42 49 0 0 0
SMALL
GASTEIGER

@<TRIPOS>ATOM
      1 C         141.2809  140.2773  159.9779 C.3     1  UNL1        0.1558
      2 N         141.7959  139.0429  159.2988 N.3     1  UNL1       -0.2809
      3 C         142.4015  139.1374  157.9298 C.3     1  UNL1        0.1166
      4 C         142.4921  140.4662  157.2398 C.3     1  UNL1        0.0511
      5 C         141.9771  141.7006  157.9188 C.2     1  UNL1       -0.0037
      6 C         141.3715  141.6061  159.2879 C.2     1  UNL1        0.0784
      7 N         140.9513  142.9843  159.7049 N.2     1  UNL1       -0.2519
      8 C         141.2972  143.9306  158.5936 C.2     1  UNL1        0.0627
      9 C         141.1168  145.4122  158.4443 C.3     1  UNL1        0.0717
     10 C         141.5703  146.1003  157.1910 C.2     1  UNL1       -0.0198
     11 C         142.2043  145.3069  156.0871 C.2     1  UNL1       -0.0042
     12 C         142.3847  143.8253  156.2365 C.2     1  UNL1        0.0006
     13 C         141.9312  143.1372  157.4897 C.2     1  UNL1        0.0111
     14 H         141.0107  138.3957  159.2294 H       1  UNL1        0.1245
     15 C         137.7183  142.8605  162.8960 C.3     1  UNL1        0.0978
     16 C         139.0220  142.3436  162.3639 C.ar    1  UNL1        0.2369
     17 N         139.1918  141.4056  161.2057 N.ar    1  UNL1       -0.1928
     18 C         140.6595  141.1562  161.0226 C.ar    1  UNL1        0.2023
     19 N         141.3968  141.9400  162.0675 N.ar    1  UNL1       -0.0586
     20 O         140.3847  142.6739  162.8965 O.2     1  UNL1       -0.3373
     21 C         142.9165  137.9030  157.2506 C.ar    1  UNL1        0.1319
     22 N         142.6138  136.4880  157.6457 N.ar    1  UNL1       -0.2282
     23 C         143.3349  135.5775  156.6965 C.ar    1  UNL1        0.1171
     24 C         144.0832  136.4297  155.7149 C.ar    1  UNL1        0.0942
     25 N         143.8246  137.8670  156.0573 N.ar    1  UNL1       -0.3385
     26 H         144.1873  138.6494  155.5823 H       1  UNL1        0.1672
     27 C         143.3117  134.0778  156.7242 C.ar    1  UNL1        0.1006
     28 C         142.2682  133.3295  155.9488 C.ar    1  UNL1        0.0230
     29 C         142.2450  131.8300  155.9764 C.ar    1  UNL1        0.0328
     30 C         143.2652  131.0788  156.7794 C.ar    1  UNL1        0.1592
     31 F         143.2420  129.5792  156.8071 F       1  UNL1       -0.2025
     32 C         144.3086  131.8271  157.5548 C.ar    1  UNL1        0.1284
     33 N         144.3318  133.3266  157.5272 N.ar    1  UNL1       -0.2399
     34 C         140.9745  139.2538  161.0307 C.ar    1  UNL1        0.0423
     35 C         139.8142  138.3031  161.0250 C.ar    1  UNL1        0.1194
     36 N         139.8973  137.4630  162.2649 N.ar    1  UNL1       -0.1679
     37 N         141.1088  137.8943  163.0369 N.ar    1  UNL1       -0.2497
     38 C         141.7746  139.0011  162.2741 C.ar    1  UNL1        0.0944
     39 C         141.5731  137.3199  164.3424 C.3     1  UNL1        0.1274
     40 C         142.3955  138.1545  165.2789 C.3     1  UNL1        0.0244
     41 C         142.6196  139.4418  166.0155 C.3     1  UNL1        0.0021
     42 C         143.5958  138.3127  166.1645 C.3     1  UNL1        0.0021
@<TRIPOS>BOND
     1    15    16    1
     2    16    17   ar
     3    17    18   ar
     4     1    18    1
     5     1    34    1
     6    34    35   ar
     7    35    36   ar
     8    36    37   ar
     9    37    39    1
    10    39    40    1
    11    40    41    1
    12    41    42    1
    13    37    38   ar
    14     1     2    1
    15     2     3    1
    16     3    21    1
    17    21    22   ar
    18    22    23   ar
    19    23    27    1
    20    27    28   ar
    21    28    29   ar
    22    29    30   ar
    23    30    31    1
    24    30    32   ar
    25    32    33   ar
    26    23    24   ar
    27    24    25   ar
    28     3     4    1
    29     4     5    1
    30     5     6    2
    31     6     7    1
    32     7     8    2
    33     8     9    1
    34     9    10    1
    35    10    11    2
    36    11    12    1
    37    12    13    2
    38    18    19   ar
    39    19    20   ar
    40    20    16   ar
    41     6     1    1
    42    13     8    1
    43    38    34   ar
    44    25    21   ar
    45    13     5    1
    46    42    40    1
    47    33    27   ar
    48     2    14    1
    49    25    26    1
@<TRIPOS>MOLECULE
*****
 42 49 0 0 0
SMALL
GASTEIGER

@<TRIPOS>ATOM
      1 C         141.0317  142.5194  159.2620 C.3     1  UNL1        0.1558
      2 N         139.7528  142.1440  158.5740 N.3     1  UNL1       -0.2809
      3 C         139.7794  141.6556  157.1559 C.3     1  UNL1        0.1166
      4 C         141.0850  141.5427  156.4260 C.3     1  UNL1        0.0511
      5 C         142.3639  141.9181  157.1140 C.2     1  UNL1       -0.0037
      6 C         142.3373  142.4065  158.5320 C.2     1  UNL1        0.0784
      7 N         143.7482  142.7015  158.9471 N.2     1  UNL1       -0.2519
      8 C         144.6467  142.3955  157.7857 C.2     1  UNL1        0.0627
      9 C         146.1334  142.4951  157.6134 C.3     1  UNL1        0.0717
     10 C         146.7646  142.1106  156.3082 C.2     1  UNL1       -0.0198
     11 C         145.9091  141.6264  155.1752 C.2     1  UNL1       -0.0042
     12 C         144.4224  141.5268  155.3475 C.2     1  UNL1        0.0006
     13 C         143.7912  141.9113  156.6527 C.2     1  UNL1        0.0111
     14 H         139.1564  142.9713  158.5893 H       1  UNL1        0.1245
     15 C         144.2578  142.5812  163.4416 C.3     1  UNL1        0.0978
     16 C         143.4534  143.0194  162.2538 C.ar    1  UNL1        0.2369
     17 N         142.5842  142.1400  161.4046 N.ar    1  UNL1       -0.1928
     18 C         141.9706  142.9909  160.3327 C.ar    1  UNL1        0.2023
     19 N         142.4605  144.3963  160.5192 N.ar    1  UNL1       -0.0586
     20 O         143.3770  144.4139  161.7066 O.2     1  UNL1       -0.3373
     21 C         138.5005  141.2802  156.4678 C.ar    1  UNL1        0.1319
     22 N         137.1489  141.1832  157.1110 N.ar    1  UNL1       -0.2282
     23 C         136.1617  140.7789  156.0565 C.ar    1  UNL1        0.1171
     24 C         136.9032  140.6260  154.7616 C.ar    1  UNL1        0.0942
     25 N         138.3487  140.9358  155.0158 N.ar    1  UNL1       -0.3385
     26 H         139.0709  140.9165  154.3471 H       1  UNL1        0.1672
     27 C         134.6911  140.5650  156.2610 C.ar    1  UNL1        0.1006
     28 C         133.7013  141.2687  155.3806 C.ar    1  UNL1        0.0230
     29 C         132.2308  141.0548  155.5851 C.ar    1  UNL1        0.0328
     30 C         131.7501  140.1374  156.6700 C.ar    1  UNL1        0.1592
     31 F         130.2795  139.9235  156.8745 F       1  UNL1       -0.2025
     32 C         132.7399  139.4337  157.5505 C.ar    1  UNL1        0.1284
     33 N         134.2104  139.6476  157.3460 N.ar    1  UNL1       -0.2399
     34 C         140.0523  142.7961  160.3638 C.ar    1  UNL1        0.0423
     35 C         139.6291  144.1515  160.8475 C.ar    1  UNL1        0.1194
     36 N         138.6392  143.9590  161.9581 N.ar    1  UNL1       -0.1679
     37 N         138.4507  142.4848  162.1607 N.ar    1  UNL1       -0.2497
     38 C         139.3241  141.7660  161.1754 C.ar    1  UNL1        0.0944
     39 C         137.5476  141.8421  163.1712 C.3     1  UNL1        0.1274
     40 C         138.0149  140.6406  163.9381 C.3     1  UNL1        0.0244
     41 C         138.2491  139.9448  165.2461 C.3     1  UNL1        0.0021
     42 C         138.5901  139.2554  163.9583 C.3     1  UNL1        0.0021
@<TRIPOS>BOND
     1    15    16    1
     2    16    17   ar
     3    17    18   ar
     4     1    18    1
     5     1    34    1
     6    34    35   ar
     7    35    36   ar
     8    36    37   ar
     9    37    39    1
    10    39    40    1
    11    40    41    1
    12    41    42    1
    13    37    38   ar
    14     1     2    1
    15     2     3    1
    16     3    21    1
    17    21    22   ar
    18    22    23   ar
    19    23    27    1
    20    27    28   ar
    21    28    29   ar
    22    29    30   ar
    23    30    31    1
    24    30    32   ar
    25    32    33   ar
    26    23    24   ar
    27    24    25   ar
    28     3     4    1
    29     4     5    1
    30     5     6    2
    31     6     7    1
    32     7     8    2
    33     8     9    1
    34     9    10    1
    35    10    11    2
    36    11    12    1
    37    12    13    2
    38    18    19   ar
    39    19    20   ar
    40    20    16   ar
    41     6     1    1
    42    13     8    1
    43    38    34   ar
    44    25    21   ar
    45    13     5    1
    46    42    40    1
    47    33    27   ar
    48     2    14    1
    49    25    26    1
@<TRIPOS>MOLECULE
*****
 42 49 0 0 0
SMALL
GASTEIGER

@<TRIPOS>ATOM
      1 C         142.3628  141.2288  159.9045 C.3     1  UNL1        0.1558
      2 N         142.7765  139.9546  159.2298 N.3     1  UNL1       -0.2809
      3 C         142.6750  139.8285  157.7385 C.3     1  UNL1        0.1166
      4 C         142.1598  140.9765  156.9221 C.3     1  UNL1        0.0511
      5 C         141.7462  142.2507  157.5968 C.2     1  UNL1       -0.0037
      6 C         141.8477  142.3769  159.0880 C.2     1  UNL1        0.0784
      7 N         141.3691  143.7459  159.4710 N.2     1  UNL1       -0.2519
      8 C         140.9718  144.4659  158.2164 C.2     1  UNL1        0.0627
      9 C         140.4279  145.8435  157.9792 C.3     1  UNL1        0.0717
     10 C         140.1171  146.2970  156.5836 C.2     1  UNL1       -0.0198
     11 C         140.3502  145.3729  155.4253 C.2     1  UNL1       -0.0042
     12 C         140.8941  143.9953  155.6625 C.2     1  UNL1        0.0006
     13 C         141.2049  143.5418  157.0581 C.2     1  UNL1        0.0111
     14 H         142.2029  139.2110  159.6279 H       1  UNL1        0.1245
     15 C         143.0315  145.0297  163.5081 C.3     1  UNL1        0.0978
     16 C         142.4032  143.9715  162.6507 C.ar    1  UNL1        0.2369
     17 N         143.1010  143.1575  161.6016 N.ar    1  UNL1       -0.1928
     18 C         142.0959  142.2245  160.9943 C.ar    1  UNL1        0.2023
     19 N         140.7768  142.4617  161.6678 N.ar    1  UNL1       -0.0586
     20 O         140.9668  143.5415  162.6916 O.2     1  UNL1       -0.3373
     21 C         143.0886  138.5542  157.0637 C.ar    1  UNL1        0.1319
     22 N         142.5866  137.1794  157.3923 N.ar    1  UNL1       -0.2282
     23 C         143.2645  136.2066  156.4736 C.ar    1  UNL1        0.1171
     24 C         144.1855  136.9802  155.5773 C.ar    1  UNL1        0.0942
     25 N         144.0768  138.4311  155.9420 N.ar    1  UNL1       -0.3385
     26 H         144.5678  139.1724  155.5194 H       1  UNL1        0.1672
     27 C         143.0578  134.7210  156.4546 C.ar    1  UNL1        0.1006
     28 C         141.9633  134.1268  155.6185 C.ar    1  UNL1        0.0230
     29 C         141.7565  132.6413  155.5994 C.ar    1  UNL1        0.0328
     30 C         142.6442  131.7500  156.4164 C.ar    1  UNL1        0.1592
     31 F         142.4374  130.2643  156.3974 F       1  UNL1       -0.2025
     32 C         143.7386  132.3442  157.2525 C.ar    1  UNL1        0.1284
     33 N         143.9454  133.8297  157.2716 N.ar    1  UNL1       -0.2399
     34 C         142.7852  140.4266  161.0994 C.ar    1  UNL1        0.0423
     35 C         144.1975  140.1732  161.5368 C.ar    1  UNL1        0.1194
     36 N         144.1546  139.3268  162.7746 N.ar    1  UNL1       -0.1679
     37 N         142.7159  139.0572  163.1021 N.ar    1  UNL1       -0.2497
     38 C         141.8695  139.7369  162.0668 C.ar    1  UNL1        0.0944
     39 C         142.2119  138.2497  164.2614 C.3     1  UNL1        0.1274
     40 C         142.8583  138.3863  165.6080 C.3     1  UNL1        0.0244
     41 C         143.9221  137.9825  166.5854 C.3     1  UNL1        0.0021
     42 C         142.9139  139.0269  166.9633 C.3     1  UNL1        0.0021
@<TRIPOS>BOND
     1    15    16    1
     2    16    17   ar
     3    17    18   ar
     4     1    18    1
     5     1    34    1
     6    34    35   ar
     7    35    36   ar
     8    36    37   ar
     9    37    39    1
    10    39    40    1
    11    40    41    1
    12    41    42    1
    13    37    38   ar
    14     1     2    1
    15     2     3    1
    16     3    21    1
    17    21    22   ar
    18    22    23   ar
    19    23    27    1
    20    27    28   ar
    21    28    29   ar
    22    29    30   ar
    23    30    31    1
    24    30    32   ar
    25    32    33   ar
    26    23    24   ar
    27    24    25   ar
    28     3     4    1
    29     4     5    1
    30     5     6    2
    31     6     7    1
    32     7     8    2
    33     8     9    1
    34     9    10    1
    35    10    11    2
    36    11    12    1
    37    12    13    2
    38    18    19   ar
    39    19    20   ar
    40    20    16   ar
    41     6     1    1
    42    13     8    1
    43    38    34   ar
    44    25    21   ar
    45    13     5    1
    46    42    40    1
    47    33    27   ar
    48     2    14    1
    49    25    26    1
@<TRIPOS>MOLECULE
*****
 42 49 0 0 0
SMALL
GASTEIGER

@<TRIPOS>ATOM
      1 C         139.6693  141.5381  159.8918 C.3     1  UNL1        0.1558
      2 N         139.7580  140.6977  158.6525 N.3     1  UNL1       -0.2809
      3 C         139.6461  139.2050  158.7491 C.3     1  UNL1        0.1166
      4 C         139.4457  138.5527  160.0849 C.3     1  UNL1        0.0511
      5 C         139.3570  139.3931  161.3242 C.2     1  UNL1       -0.0037
      6 C         139.4689  140.8858  161.2276 C.2     1  UNL1        0.0784
      7 N         139.3447  141.4504  162.6117 N.2     1  UNL1       -0.2519
      8 C         139.1561  140.3066  163.5637 C.2     1  UNL1        0.0627
      9 C         138.9784  140.2587  165.0524 C.3     1  UNL1        0.0717
     10 C         138.8083  138.9392  165.7452 C.2     1  UNL1       -0.0198
     11 C         138.8160  137.6677  164.9494 C.2     1  UNL1       -0.0042
     12 C         138.9937  137.7157  163.4608 C.2     1  UNL1        0.0006
     13 C         139.1637  139.0351  162.7679 C.2     1  UNL1        0.0111
     14 H         140.6620  140.8982  158.2248 H       1  UNL1        0.1245
     15 C         141.1920  145.4177  163.1337 C.3     1  UNL1        0.0978
     16 C         140.3475  144.5347  162.2637 C.ar    1  UNL1        0.2369
     17 N         140.8214  143.3290  161.5075 N.ar    1  UNL1       -0.1928
     18 C         139.6477  142.7514  160.7736 C.ar    1  UNL1        0.2023
     19 N         138.4484  143.6000  161.0761 N.ar    1  UNL1       -0.0586
     20 O         138.8810  144.7022  161.9971 O.2     1  UNL1       -0.3373
     21 C         139.7348  138.3645  157.5098 C.ar    1  UNL1        0.1319
     22 N         140.6929  137.2339  157.2780 N.ar    1  UNL1       -0.2282
     23 C         140.4312  136.6777  155.9097 C.ar    1  UNL1        0.1171
     24 C         139.3113  137.4645  155.2959 C.ar    1  UNL1        0.0942
     25 N         138.8809  138.5070  156.2849 N.ar    1  UNL1       -0.3385
     26 H         138.1638  139.1686  156.1531 H       1  UNL1        0.1672
     27 C         141.1613  135.5352  155.2679 C.ar    1  UNL1        0.1006
     28 C         142.2335  134.8100  156.0257 C.ar    1  UNL1        0.0230
     29 C         142.9636  133.6676  155.3840 C.ar    1  UNL1        0.0328
     30 C         142.6213  133.2504  153.9844 C.ar    1  UNL1        0.1592
     31 F         143.3514  132.1079  153.3426 F       1  UNL1       -0.2025
     32 C         141.5491  133.9756  153.2266 C.ar    1  UNL1        0.1284
     33 N         140.8190  135.1180  153.8683 N.ar    1  UNL1       -0.2399
     34 C         139.8623  142.6117  158.8623 C.ar    1  UNL1        0.0423
     35 C         141.0858  143.4632  158.6950 C.ar    1  UNL1        0.1194
     36 N         140.8452  144.4002  157.5485 N.ar    1  UNL1       -0.1679
     37 N         139.4731  144.1277  157.0072 N.ar    1  UNL1       -0.2497
     38 C         138.8656  143.0224  157.8192 C.ar    1  UNL1        0.0944
     39 C         138.8227  144.8362  155.8562 C.3     1  UNL1        0.1274
     40 C         139.0740  146.2986  155.6369 C.3     1  UNL1        0.0244
     41 C         139.6228  147.4100  154.7922 C.3     1  UNL1        0.0021
     42 C         138.9604  147.7202  156.1017 C.3     1  UNL1        0.0021
@<TRIPOS>BOND
     1    15    16    1
     2    16    17   ar
     3    17    18   ar
     4     1    18    1
     5     1    34    1
     6    34    35   ar
     7    35    36   ar
     8    36    37   ar
     9    37    39    1
    10    39    40    1
    11    40    41    1
    12    41    42    1
    13    37    38   ar
    14     1     2    1
    15     2     3    1
    16     3    21    1
    17    21    22   ar
    18    22    23   ar
    19    23    27    1
    20    27    28   ar
    21    28    29   ar
    22    29    30   ar
    23    30    31    1
    24    30    32   ar
    25    32    33   ar
    26    23    24   ar
    27    24    25   ar
    28     3     4    1
    29     4     5    1
    30     5     6    2
    31     6     7    1
    32     7     8    2
    33     8     9    1
    34     9    10    1
    35    10    11    2
    36    11    12    1
    37    12    13    2
    38    18    19   ar
    39    19    20   ar
    40    20    16   ar
    41     6     1    1
    42    13     8    1
    43    38    34   ar
    44    25    21   ar
    45    13     5    1
    46    42    40    1
    47    33    27   ar
    48     2    14    1
    49    25    26    1
@<TRIPOS>MOLECULE
*****
 42 49 0 0 0
SMALL
GASTEIGER

@<TRIPOS>ATOM
      1 C         142.4710  139.7881  159.6174 C.3     1  UNL1        0.1558
      2 N         143.1544  140.2614  158.3689 N.3     1  UNL1       -0.2809
      3 C         144.0912  141.4316  158.4242 C.3     1  UNL1        0.1166
      4 C         144.3446  142.1284  159.7282 C.3     1  UNL1        0.0511
      5 C         143.6612  141.6551  160.9767 C.2     1  UNL1       -0.0037
      6 C         142.7244  140.4849  160.9213 C.2     1  UNL1        0.0784
      7 N         142.1988  140.2460  162.3058 N.2     1  UNL1       -0.2519
      8 C         142.8108  141.2686  163.2168 C.2     1  UNL1        0.0627
      9 C         142.6618  141.5192  164.6881 C.3     1  UNL1        0.0717
     10 C         143.4166  142.6407  165.3381 C.2     1  UNL1       -0.0198
     11 C         144.3204  143.5116  164.5167 C.2     1  UNL1       -0.0042
     12 C         144.4694  143.2609  163.0453 C.2     1  UNL1        0.0006
     13 C         143.7146  142.1395  162.3954 C.2     1  UNL1        0.0111
     14 H         142.4193  140.5039  157.7047 H       1  UNL1        0.1245
     15 C         138.2872  138.0719  162.3434 C.3     1  UNL1        0.0978
     16 C         139.6708  138.1857  161.7753 C.ar    1  UNL1        0.2369
     17 N         140.1507  139.2456  160.8285 N.ar    1  UNL1       -0.1928
     18 C         141.5938  138.9746  160.5223 C.ar    1  UNL1        0.2023
     19 N         142.0059  137.7473  161.2799 N.ar    1  UNL1       -0.0586
     20 O         140.8174  137.2598  162.0543 O.2     1  UNL1       -0.3373
     21 C         144.7746  141.9050  157.1756 C.ar    1  UNL1        0.1319
     22 N         146.2472  141.8400  156.8979 N.ar    1  UNL1       -0.2282
     23 C         146.4882  142.4213  155.5363 C.ar    1  UNL1        0.1171
     24 C         145.1645  142.8456  154.9725 C.ar    1  UNL1        0.0942
     25 N         144.1055  142.5265  155.9857 N.ar    1  UNL1       -0.3385
     26 H         143.1406  142.6953  155.8871 H       1  UNL1        0.1672
     27 C         147.8192  142.5548  154.8576 C.ar    1  UNL1        0.1006
     28 C         148.9899  141.7489  155.3372 C.ar    1  UNL1        0.0230
     29 C         150.3209  141.8824  154.6585 C.ar    1  UNL1        0.0328
     30 C         150.4812  142.8219  153.5003 C.ar    1  UNL1        0.1592
     31 F         151.8122  142.9555  152.8215 F       1  UNL1       -0.2025
     32 C         149.3106  143.6278  153.0206 C.ar    1  UNL1        0.1284
     33 N         147.9796  143.4943  153.6993 N.ar    1  UNL1       -0.2399
     34 C         141.9130  138.8087  158.6278 C.ar    1  UNL1        0.0423
     35 C         140.5114  138.7968  158.0936 C.ar    1  UNL1        0.1194
     36 N         140.3908  137.6499  157.1342 N.ar    1  UNL1       -0.1679
     37 N         141.7178  136.9531  157.0755 N.ar    1  UNL1       -0.2497
     38 C         142.6586  137.6693  157.9986 C.ar    1  UNL1        0.0944
     39 C         142.0463  135.7513  156.2404 C.3     1  UNL1        0.1274
     40 C         142.9825  134.7047  156.7678 C.3     1  UNL1        0.0244
     41 C         143.6565  134.0289  157.9250 C.3     1  UNL1        0.0021
     42 C         143.9300  133.5676  156.5241 C.3     1  UNL1        0.0021
@<TRIPOS>BOND
     1    15    16    1
     2    16    17   ar
     3    17    18   ar
     4     1    18    1
     5     1    34    1
     6    34    35   ar
     7    35    36   ar
     8    36    37   ar
     9    37    39    1
    10    39    40    1
    11    40    41    1
    12    41    42    1
    13    37    38   ar
    14     1     2    1
    15     2     3    1
    16     3    21    1
    17    21    22   ar
    18    22    23   ar
    19    23    27    1
    20    27    28   ar
    21    28    29   ar
    22    29    30   ar
    23    30    31    1
    24    30    32   ar
    25    32    33   ar
    26    23    24   ar
    27    24    25   ar
    28     3     4    1
    29     4     5    1
    30     5     6    2
    31     6     7    1
    32     7     8    2
    33     8     9    1
    34     9    10    1
    35    10    11    2
    36    11    12    1
    37    12    13    2
    38    18    19   ar
    39    19    20   ar
    40    20    16   ar
    41     6     1    1
    42    13     8    1
    43    38    34   ar
    44    25    21   ar
    45    13     5    1
    46    42    40    1
    47    33    27   ar
    48     2    14    1
    49    25    26    1
@<TRIPOS>MOLECULE
*****
 42 49 0 0 0
SMALL
GASTEIGER

@<TRIPOS>ATOM
      1 C         140.4711  140.3403  159.2974 C.3     1  UNL1        0.1558
      2 N         141.1530  140.3870  160.6326 N.3     1  UNL1       -0.2809
      3 C         142.2119  139.3794  160.9695 C.3     1  UNL1        0.1166
      4 C         142.5888  138.3251  159.9713 C.3     1  UNL1        0.0511
      5 C         141.9069  138.2785  158.6361 C.2     1  UNL1       -0.0037
      6 C         140.8480  139.2861  158.2991 C.2     1  UNL1        0.0784
      7 N         140.3534  138.9930  156.9137 N.2     1  UNL1       -0.2519
      8 C         141.1065  137.8042  156.3944 C.2     1  UNL1        0.0627
      9 C         141.0421  137.0668  155.0898 C.3     1  UNL1        0.0717
     10 C         141.9378  135.8879  154.8497 C.2     1  UNL1       -0.0198
     11 C         142.8979  135.4463  155.9142 C.2     1  UNL1       -0.0042
     12 C         142.9624  136.1837  157.2188 C.2     1  UNL1        0.0006
     13 C         142.0667  137.3626  157.4589 C.2     1  UNL1        0.0111
     14 H         140.4233  140.2948  161.3393 H       1  UNL1        0.1245
     15 C         136.1487  140.8039  156.3003 C.3     1  UNL1        0.0978
     16 C         137.5600  140.9168  156.7956 C.ar    1  UNL1        0.2369
     17 N         138.0902  140.3574  158.0825 N.ar    1  UNL1       -0.1928
     18 C         139.5468  140.7036  158.1732 C.ar    1  UNL1        0.2023
     19 N         139.9170  141.4769  156.9424 N.ar    1  UNL1       -0.0586
     20 O         138.6891  141.6086  156.0910 O.2     1  UNL1       -0.3373
     21 C         142.8938  139.4260  162.3048 C.ar    1  UNL1        0.1319
     22 N         142.2805  139.8912  163.5922 N.ar    1  UNL1       -0.2282
     23 C         143.3164  139.7683  164.6701 C.ar    1  UNL1        0.1171
     24 C         144.5699  139.2271  164.0488 C.ar    1  UNL1        0.0942
     25 N         144.3087  139.0156  162.5870 N.ar    1  UNL1       -0.3385
     26 H         144.9528  138.6683  161.9284 H       1  UNL1        0.1672
     27 C         143.1313  140.1242  166.1155 C.ar    1  UNL1        0.1006
     28 C         142.9380  139.0416  167.1356 C.ar    1  UNL1        0.0230
     29 C         142.7529  139.3973  168.5810 C.ar    1  UNL1        0.0328
     30 C         142.7611  140.8357  169.0062 C.ar    1  UNL1        0.1592
     31 F         142.5760  141.1916  170.4517 F       1  UNL1       -0.2025
     32 C         142.9544  141.9183  167.9861 C.ar    1  UNL1        0.1284
     33 N         143.1395  141.5626  166.5408 N.ar    1  UNL1       -0.2399
     34 C         139.7731  141.5207  159.9052 C.ar    1  UNL1        0.0423
     35 C         139.7191  142.9052  159.3304 C.ar    1  UNL1        0.1194
     36 N         138.9191  143.7640  160.2646 N.ar    1  UNL1       -0.1679
     37 N         138.4789  142.9104  161.4167 N.ar    1  UNL1       -0.2497
     38 C         139.0066  141.5239  161.1946 C.ar    1  UNL1        0.0944
     39 C         137.6554  143.3635  162.5856 C.3     1  UNL1        0.1274
     40 C         138.3094  144.0745  163.7331 C.3     1  UNL1        0.0244
     41 C         138.2385  144.6429  165.1195 C.3     1  UNL1        0.0021
     42 C         139.5131  144.7376  164.3344 C.3     1  UNL1        0.0021
@<TRIPOS>BOND
     1    15    16    1
     2    16    17   ar
     3    17    18   ar
     4     1    18    1
     5     1    34    1
     6    34    35   ar
     7    35    36   ar
     8    36    37   ar
     9    37    39    1
    10    39    40    1
    11    40    41    1
    12    41    42    1
    13    37    38   ar
    14     1     2    1
    15     2     3    1
    16     3    21    1
    17    21    22   ar
    18    22    23   ar
    19    23    27    1
    20    27    28   ar
    21    28    29   ar
    22    29    30   ar
    23    30    31    1
    24    30    32   ar
    25    32    33   ar
    26    23    24   ar
    27    24    25   ar
    28     3     4    1
    29     4     5    1
    30     5     6    2
    31     6     7    1
    32     7     8    2
    33     8     9    1
    34     9    10    1
    35    10    11    2
    36    11    12    1
    37    12    13    2
    38    18    19   ar
    39    19    20   ar
    40    20    16   ar
    41     6     1    1
    42    13     8    1
    43    38    34   ar
    44    25    21   ar
    45    13     5    1
    46    42    40    1
    47    33    27   ar
    48     2    14    1
    49    25    26    1
