@<TRIPOS>MOLECULE
*****
 28 30 0 0 0
SMALL
GASTEIGER

@<TRIPOS>ATOM
      1 C         140.0015  144.7714  157.9647 C.ar    1  UNL1        0.1535
      2 C         140.9223  145.5644  158.8440 C.ar    1  UNL1        0.0377
      3 C         140.9092  145.3516  160.3288 C.ar    1  UNL1        0.0239
      4 C         139.9753  144.3460  160.9342 C.ar    1  UNL1        0.1059
      5 N         139.0545  143.5531  160.0548 N.ar    1  UNL1       -0.1467
      6 N         139.0676  143.7658  158.5700 N.ar    1  UNL1       -0.1329
      7 C         139.9623  144.1333  162.4190 C.ar    1  UNL1        0.0532
      8 C         141.2240  143.7474  163.1325 C.ar    1  UNL1        0.0069
      9 C         141.2109  143.5347  164.6173 C.ar    1  UNL1        0.0299
     10 C         139.9361  143.7079  165.3886 C.ar    1  UNL1        0.1432
     11 F         139.9230  143.4952  166.8733 F       1  UNL1       -0.2041
     12 C         138.6743  144.0937  164.6750 C.ar    1  UNL1        0.0663
     13 C         138.6874  144.3064  163.1902 C.ar    1  UNL1        0.1373
     14 O         137.4257  144.6923  162.4767 O.3     1  UNL1       -0.5054
     15 H         136.6293  144.8004  162.9584 H       1  UNL1        0.2922
     16 C         140.2059  143.8175  155.5567 C.3     1  UNL1        0.1135
     17 N         140.0146  144.9841  156.4798 N.pl3   1  UNL1       -0.2916
     18 C         139.8363  146.3636  155.9182 C.3     1  UNL1        0.0768
     19 C         140.3680  146.6928  154.5548 C.3     1  UNL1        0.0342
     20 C         140.1898  148.0722  153.9932 C.3     1  UNL1        0.0435
     21 C         140.2674  149.2260  153.0380 C.3     1  UNL1        0.0158
     22 C         140.9268  147.4227  152.8597 C.3     1  UNL1        0.0158
     23 N         139.4797  149.1224  154.7950 N.3     1  UNL1       -0.3015
     24 C         138.9479  148.7932  156.1584 C.3     1  UNL1        0.0435
     25 C         138.2728  148.9636  157.4870 C.3     1  UNL1        0.0158
     26 C         138.5352  150.2318  156.0582 C.3     1  UNL1        0.0158
     27 C         139.1262  147.4138  156.7200 C.3     1  UNL1        0.0342
     28 H         138.6849  149.4324  154.2359 H       1  UNL1        0.1231
@<TRIPOS>BOND
     1    16    17    1
     2    17     1    1
     3     1     2   ar
     4     2     3   ar
     5     3     4   ar
     6     4     7    1
     7     7     8   ar
     8     8     9   ar
     9     9    10   ar
    10    10    11    1
    11    10    12   ar
    12    12    13   ar
    13    13    14    1
    14     4     5   ar
    15     5     6   ar
    16    17    18    1
    17    18    19    1
    18    19    20    1
    19    20    21    1
    20    20    22    1
    21    20    23    1
    22    23    24    1
    23    24    25    1
    24    24    26    1
    25    24    27    1
    26     6     1   ar
    27    27    18    1
    28    13     7   ar
    29    14    15    1
    30    23    28    1
@<TRIPOS>MOLECULE
*****
 28 30 0 0 0
SMALL
GASTEIGER

@<TRIPOS>ATOM
      1 C         142.0649  138.0269  158.2513 C.ar    1  UNL1        0.1535
      2 C         140.6162  138.4158  158.2623 C.ar    1  UNL1        0.0377
      3 C         139.8995  138.6017  159.5668 C.ar    1  UNL1        0.0239
      4 C         140.6314  138.3987  160.8602 C.ar    1  UNL1        0.1059
      5 N         142.0800  138.0098  160.8493 N.ar    1  UNL1       -0.1467
      6 N         142.7967  137.8239  159.5448 N.ar    1  UNL1       -0.1329
      7 C         139.9145  138.5846  162.1648 C.ar    1  UNL1        0.0532
      8 C         138.8961  139.6759  162.3120 C.ar    1  UNL1        0.0069
      9 C         138.1793  139.8618  163.6165 C.ar    1  UNL1        0.0299
     10 C         138.4809  138.9563  164.7737 C.ar    1  UNL1        0.1432
     11 F         137.7641  139.1422  166.0782 F       1  UNL1       -0.2041
     12 C         139.4994  137.8649  164.6264 C.ar    1  UNL1        0.0663
     13 C         140.2161  137.6790  163.3219 C.ar    1  UNL1        0.1373
     14 O         141.2346  136.5876  163.1746 O.3     1  UNL1       -0.5054
     15 H         141.4230  136.0220  163.8974 H       1  UNL1        0.2922
     16 C         143.5152  138.9914  156.3235 C.3     1  UNL1        0.1135
     17 N         142.7817  137.8410  156.9468 N.pl3   1  UNL1       -0.2916
     18 C         142.7650  136.5047  156.2657 C.3     1  UNL1        0.0768
     19 C         142.2611  136.3867  154.8579 C.3     1  UNL1        0.0342
     20 C         142.2444  135.0504  154.1767 C.3     1  UNL1        0.0435
     21 C         142.0330  134.0119  153.1152 C.3     1  UNL1        0.0158
     22 C         141.6837  135.9081  153.0813 C.3     1  UNL1        0.0158
     23 N         142.7317  133.8320  154.9034 N.3     1  UNL1       -0.3015
     24 C         143.2356  133.9500  156.3114 C.3     1  UNL1        0.0435
     25 C         143.8021  133.5564  157.6433 C.3     1  UNL1        0.0158
     26 C         143.4157  132.4770  156.0928 C.3     1  UNL1        0.0158
     27 C         143.2523  135.2863  156.9925 C.3     1  UNL1        0.0342
     28 H         143.4949  133.4441  154.3490 H       1  UNL1        0.1231
@<TRIPOS>BOND
     1    16    17    1
     2    17     1    1
     3     1     2   ar
     4     2     3   ar
     5     3     4   ar
     6     4     7    1
     7     7     8   ar
     8     8     9   ar
     9     9    10   ar
    10    10    11    1
    11    10    12   ar
    12    12    13   ar
    13    13    14    1
    14     4     5   ar
    15     5     6   ar
    16    17    18    1
    17    18    19    1
    18    19    20    1
    19    20    21    1
    20    20    22    1
    21    20    23    1
    22    23    24    1
    23    24    25    1
    24    24    26    1
    25    24    27    1
    26     6     1   ar
    27    27    18    1
    28    13     7   ar
    29    14    15    1
    30    23    28    1
@<TRIPOS>MOLECULE
*****
 28 30 0 0 0
SMALL
GASTEIGER

@<TRIPOS>ATOM
      1 C         142.0355  138.0277  158.2937 C.ar    1  UNL1        0.1535
      2 C         140.5838  138.4044  158.3172 C.ar    1  UNL1        0.0377
      3 C         139.8758  138.5807  159.6278 C.ar    1  UNL1        0.0239
      4 C         140.6196  138.3803  160.9149 C.ar    1  UNL1        0.1059
      5 N         142.0713  138.0036  160.8914 N.ar    1  UNL1       -0.1467
      6 N         142.7792  137.8273  159.5809 N.ar    1  UNL1       -0.1329
      7 C         139.9115  138.5567  162.2255 C.ar    1  UNL1        0.0532
      8 C         138.9075  139.6584  162.3933 C.ar    1  UNL1        0.0069
      9 C         138.1995  139.8347  163.7039 C.ar    1  UNL1        0.0299
     10 C         138.4955  138.9093  164.8467 C.ar    1  UNL1        0.1432
     11 F         137.7875  139.0856  166.1573 F       1  UNL1       -0.2041
     12 C         139.4995  137.8075  164.6789 C.ar    1  UNL1        0.0663
     13 C         140.2075  137.6312  163.3683 C.ar    1  UNL1        0.1373
     14 O         141.2116  136.5295  163.2005 O.3     1  UNL1       -0.5054
     15 H         141.3965  135.9514  163.9143 H       1  UNL1        0.2922
     16 C         143.4607  139.0101  156.3563 C.3     1  UNL1        0.1135
     17 N         142.7435  137.8514  156.9831 N.pl3   1  UNL1       -0.2916
     18 C         142.7343  136.5163  156.2994 C.3     1  UNL1        0.0768
     19 C         143.2204  135.2978  157.0267 C.3     1  UNL1        0.0342
     20 C         143.2112  133.9627  156.3430 C.3     1  UNL1        0.0435
     21 C         143.3963  132.4906  156.1228 C.3     1  UNL1        0.0158
     22 C         143.7707  133.5681  157.6776 C.3     1  UNL1        0.0158
     23 N         142.7159  133.8461  154.9320 N.3     1  UNL1       -0.3015
     24 C         142.2298  135.0646  154.2046 C.3     1  UNL1        0.0435
     25 C         141.6735  135.9230  153.1075 C.3     1  UNL1        0.0158
     26 C         142.0274  134.0276  153.1399 C.3     1  UNL1        0.0158
     27 C         142.2390  136.3997  154.8883 C.3     1  UNL1        0.0342
     28 H         141.9412  133.1828  154.9457 H       1  UNL1        0.1231
@<TRIPOS>BOND
     1    16    17    1
     2    17     1    1
     3     1     2   ar
     4     2     3   ar
     5     3     4   ar
     6     4     7    1
     7     7     8   ar
     8     8     9   ar
     9     9    10   ar
    10    10    11    1
    11    10    12   ar
    12    12    13   ar
    13    13    14    1
    14     4     5   ar
    15     5     6   ar
    16    17    18    1
    17    18    19    1
    18    19    20    1
    19    20    21    1
    20    20    22    1
    21    20    23    1
    22    23    24    1
    23    24    25    1
    24    24    26    1
    25    24    27    1
    26     6     1   ar
    27    27    18    1
    28    13     7   ar
    29    14    15    1
    30    23    28    1
@<TRIPOS>MOLECULE
*****
 28 30 0 0 0
SMALL
GASTEIGER

@<TRIPOS>ATOM
      1 C         139.5397  138.8536  164.7732 C.ar    1  UNL1        0.1535
      2 C         139.1042  139.8268  163.7181 C.ar    1  UNL1        0.0377
      3 C         139.5660  139.6536  162.3016 C.ar    1  UNL1        0.0239
      4 C         140.4633  138.5072  161.9400 C.ar    1  UNL1        0.1059
      5 N         140.8987  137.5340  162.9951 N.ar    1  UNL1       -0.1467
      6 N         140.4369  137.7072  164.4116 N.ar    1  UNL1       -0.1329
      7 C         140.9251  138.3341  160.5234 C.ar    1  UNL1        0.0532
      8 C         139.9969  138.6496  159.3881 C.ar    1  UNL1        0.0069
      9 C         140.4587  138.4764  157.9714 C.ar    1  UNL1        0.0299
     10 C         141.8487  137.9878  157.6901 C.ar    1  UNL1        0.1432
     11 F         142.3105  137.8146  156.2736 F       1  UNL1       -0.2041
     12 C         142.7769  137.6723  158.8255 C.ar    1  UNL1        0.0663
     13 C         142.3151  137.8455  160.2421 C.ar    1  UNL1        0.1373
     14 O         143.2433  137.5300  161.3774 O.3     1  UNL1       -0.5054
     15 H         144.1116  137.2248  161.2017 H       1  UNL1        0.2922
     16 C         137.8335  138.3356  166.6628 C.3     1  UNL1        0.1135
     17 N         139.0779  139.0267  166.1898 N.pl3   1  UNL1       -0.2916
     18 C         139.8606  139.8911  167.1334 C.3     1  UNL1        0.0768
     19 C         141.1689  140.4822  166.6990 C.3     1  UNL1        0.0342
     20 C         141.9516  141.3465  167.6426 C.3     1  UNL1        0.0435
     21 C         143.0492  142.2214  168.1714 C.3     1  UNL1        0.0158
     22 C         142.8585  141.3771  166.4482 C.3     1  UNL1        0.0158
     23 N         141.4259  141.6197  169.0206 N.3     1  UNL1       -0.3015
     24 C         140.1175  141.0286  169.4551 C.3     1  UNL1        0.0435
     25 C         138.9387  140.6977  170.3218 C.3     1  UNL1        0.0158
     26 C         140.4907  141.7780  170.6997 C.3     1  UNL1        0.0158
     27 C         139.3348  140.1643  168.5115 C.3     1  UNL1        0.0342
     28 H         141.3343  142.6320  169.1055 H       1  UNL1        0.1231
@<TRIPOS>BOND
     1    16    17    1
     2    17     1    1
     3     1     2   ar
     4     2     3   ar
     5     3     4   ar
     6     4     7    1
     7     7     8   ar
     8     8     9   ar
     9     9    10   ar
    10    10    11    1
    11    10    12   ar
    12    12    13   ar
    13    13    14    1
    14     4     5   ar
    15     5     6   ar
    16    17    18    1
    17    18    19    1
    18    19    20    1
    19    20    21    1
    20    20    22    1
    21    20    23    1
    22    23    24    1
    23    24    25    1
    24    24    26    1
    25    24    27    1
    26     6     1   ar
    27    27    18    1
    28    13     7   ar
    29    14    15    1
    30    23    28    1
@<TRIPOS>MOLECULE
*****
 28 30 0 0 0
SMALL
GASTEIGER

@<TRIPOS>ATOM
      1 C         141.2933  142.2143  164.3117 C.ar    1  UNL1        0.1535
      2 C         141.9955  141.5800  163.1479 C.ar    1  UNL1        0.0377
      3 C         141.6459  141.9886  161.7476 C.ar    1  UNL1        0.0239
      4 C         140.5942  143.0316  161.5112 C.ar    1  UNL1        0.1059
      5 N         139.8919  143.6660  162.6750 N.ar    1  UNL1       -0.1467
      6 N         140.2415  143.2573  164.0752 N.ar    1  UNL1       -0.1329
      7 C         140.2446  143.4403  160.1108 C.ar    1  UNL1        0.0532
      8 C         139.2924  142.6096  159.3027 C.ar    1  UNL1        0.0069
      9 C         138.9428  143.0182  157.9023 C.ar    1  UNL1        0.0299
     10 C         139.5455  144.2576  157.3102 C.ar    1  UNL1        0.1432
     11 F         139.1960  144.6663  155.9100 F       1  UNL1       -0.2041
     12 C         140.4978  145.0884  158.1184 C.ar    1  UNL1        0.0663
     13 C         140.8473  144.6797  159.5187 C.ar    1  UNL1        0.1373
     14 O         141.7995  145.5105  160.3269 O.3     1  UNL1       -0.5054
     15 H         142.1760  146.2847  159.9571 H       1  UNL1        0.2922
     16 C         142.9918  142.1401  166.2763 C.3     1  UNL1        0.1135
     17 N         141.6429  141.8057  165.7120 N.pl3   1  UNL1       -0.2916
     18 C         140.6434  141.0626  166.5480 C.3     1  UNL1        0.0768
     19 C         140.5428  141.3387  168.0189 C.3     1  UNL1        0.0342
     20 C         139.5434  140.5956  168.8549 C.3     1  UNL1        0.0435
     21 C         138.7618  140.1532  170.0563 C.3     1  UNL1        0.0158
     22 C         140.1708  141.4612  169.9071 C.3     1  UNL1        0.0158
     23 N         138.6445  139.5764  168.2200 N.3     1  UNL1       -0.3015
     24 C         138.7450  139.3002  166.7491 C.3     1  UNL1        0.0435
     25 C         138.4647  138.6927  165.4065 C.3     1  UNL1        0.0158
     26 C         137.6483  138.3461  167.1188 C.3     1  UNL1        0.0158
     27 C         139.7445  140.0433  165.9131 C.3     1  UNL1        0.0342
     28 H         137.6863  139.8771  168.3983 H       1  UNL1        0.1231
@<TRIPOS>BOND
     1    16    17    1
     2    17     1    1
     3     1     2   ar
     4     2     3   ar
     5     3     4   ar
     6     4     7    1
     7     7     8   ar
     8     8     9   ar
     9     9    10   ar
    10    10    11    1
    11    10    12   ar
    12    12    13   ar
    13    13    14    1
    14     4     5   ar
    15     5     6   ar
    16    17    18    1
    17    18    19    1
    18    19    20    1
    19    20    21    1
    20    20    22    1
    21    20    23    1
    22    23    24    1
    23    24    25    1
    24    24    26    1
    25    24    27    1
    26     6     1   ar
    27    27    18    1
    28    13     7   ar
    29    14    15    1
    30    23    28    1
@<TRIPOS>MOLECULE
*****
 28 30 0 0 0
SMALL
GASTEIGER

@<TRIPOS>ATOM
      1 C         139.6232  144.3010  161.9199 C.ar    1  UNL1        0.1535
      2 C         139.6616  143.1148  161.0026 C.ar    1  UNL1        0.0377
      3 C         139.8566  143.3126  159.5286 C.ar    1  UNL1        0.0239
      4 C         140.0132  144.6966  158.9719 C.ar    1  UNL1        0.1059
      5 N         139.9749  145.8828  159.8891 N.ar    1  UNL1       -0.1467
      6 N         139.7799  145.6850  161.3631 N.ar    1  UNL1       -0.1329
      7 C         140.2082  144.8944  157.4977 C.ar    1  UNL1        0.0532
      8 C         139.2249  144.3120  156.5263 C.ar    1  UNL1        0.0069
      9 C         139.4199  144.5097  155.0522 C.ar    1  UNL1        0.0299
     10 C         140.5983  145.2900  154.5496 C.ar    1  UNL1        0.1432
     11 F         140.7934  145.4877  153.0756 F       1  UNL1       -0.2041
     12 C         141.5817  145.8724  155.5211 C.ar    1  UNL1        0.0663
     13 C         141.3867  145.6746  156.9951 C.ar    1  UNL1        0.1373
     14 O         142.3701  146.2571  157.9667 O.3     1  UNL1       -0.5054
     15 H         143.1062  146.7444  157.6527 H       1  UNL1        0.2922
     16 C         138.0805  144.3358  164.0101 C.3     1  UNL1        0.1135
     17 N         139.4282  144.1032  163.3940 N.pl3   1  UNL1       -0.2916
     18 C         140.5809  143.6729  164.2520 C.3     1  UNL1        0.0768
     19 C         141.9804  144.0624  163.8783 C.3     1  UNL1        0.0342
     20 C         143.1331  143.6321  164.7362 C.3     1  UNL1        0.0435
     21 C         144.5414  143.4666  165.2254 C.3     1  UNL1        0.0158
     22 C         143.8690  144.3945  163.6744 C.3     1  UNL1        0.0158
     23 N         142.8864  142.8123  165.9678 N.3     1  UNL1       -0.3015
     24 C         141.4868  142.4228  166.3416 C.3     1  UNL1        0.0435
     25 C         140.3506  141.8099  167.1054 C.3     1  UNL1        0.0158
     26 C         142.2450  141.7796  167.4648 C.3     1  UNL1        0.0158
     27 C         140.3341  142.8531  165.4837 C.3     1  UNL1        0.0342
     28 H         143.2649  143.3407  166.7540 H       1  UNL1        0.1231
@<TRIPOS>BOND
     1    16    17    1
     2    17     1    1
     3     1     2   ar
     4     2     3   ar
     5     3     4   ar
     6     4     7    1
     7     7     8   ar
     8     8     9   ar
     9     9    10   ar
    10    10    11    1
    11    10    12   ar
    12    12    13   ar
    13    13    14    1
    14     4     5   ar
    15     5     6   ar
    16    17    18    1
    17    18    19    1
    18    19    20    1
    19    20    21    1
    20    20    22    1
    21    20    23    1
    22    23    24    1
    23    24    25    1
    24    24    26    1
    25    24    27    1
    26     6     1   ar
    27    27    18    1
    28    13     7   ar
    29    14    15    1
    30    23    28    1
@<TRIPOS>MOLECULE
*****
 28 30 0 0 0
SMALL
GASTEIGER

@<TRIPOS>ATOM
      1 C         142.5069  143.7838  162.4310 C.ar    1  UNL1        0.1535
      2 C         141.0383  144.0363  162.2593 C.ar    1  UNL1        0.0377
      3 C         140.4717  144.2644  160.8893 C.ar    1  UNL1        0.0239
      4 C         141.3737  144.2399  159.6910 C.ar    1  UNL1        0.1059
      5 N         142.8423  143.9874  159.8627 N.ar    1  UNL1       -0.1467
      6 N         143.4088  143.7593  161.2327 N.ar    1  UNL1       -0.1329
      7 C         140.8071  144.4679  158.3209 C.ar    1  UNL1        0.0532
      8 C         139.6292  143.6655  157.8534 C.ar    1  UNL1        0.0069
      9 C         139.0625  143.8936  156.4833 C.ar    1  UNL1        0.0299
     10 C         139.6738  144.9241  155.5809 C.ar    1  UNL1        0.1432
     11 F         139.1072  145.1522  154.2109 F       1  UNL1       -0.2041
     12 C         140.8518  145.7265  156.0485 C.ar    1  UNL1        0.0663
     13 C         141.4184  145.4984  157.4185 C.ar    1  UNL1        0.1373
     14 O         142.5963  146.3009  157.8861 O.3     1  UNL1       -0.5054
     15 H         142.9782  146.9446  157.3224 H       1  UNL1        0.2922
     16 C         143.9775  144.5809  164.4190 C.3     1  UNL1        0.1135
     17 N         143.0735  143.5558  163.8011 N.pl3   1  UNL1       -0.2916
     18 C         142.7362  142.3025  164.5531 C.3     1  UNL1        0.0768
     19 C         141.4843  142.2360  165.3767 C.3     1  UNL1        0.0342
     20 C         141.1469  140.9828  166.1287 C.3     1  UNL1        0.0435
     21 C         140.4022  140.0264  167.0121 C.3     1  UNL1        0.0158
     22 C         139.9737  141.8374  166.5071 C.3     1  UNL1        0.0158
     23 N         142.0615  139.7960  166.0572 N.3     1  UNL1       -0.3015
     24 C         143.3135  139.8625  165.2336 C.3     1  UNL1        0.0435
     25 C         144.6038  139.4431  164.5940 C.3     1  UNL1        0.0158
     26 C         143.4242  138.4636  165.7635 C.3     1  UNL1        0.0158
     27 C         143.6508  141.1157  164.4815 C.3     1  UNL1        0.0342
     28 H         141.5093  139.0204  165.6915 H       1  UNL1        0.1231
@<TRIPOS>BOND
     1    16    17    1
     2    17     1    1
     3     1     2   ar
     4     2     3   ar
     5     3     4   ar
     6     4     7    1
     7     7     8   ar
     8     8     9   ar
     9     9    10   ar
    10    10    11    1
    11    10    12   ar
    12    12    13   ar
    13    13    14    1
    14     4     5   ar
    15     5     6   ar
    16    17    18    1
    17    18    19    1
    18    19    20    1
    19    20    21    1
    20    20    22    1
    21    20    23    1
    22    23    24    1
    23    24    25    1
    24    24    26    1
    25    24    27    1
    26     6     1   ar
    27    27    18    1
    28    13     7   ar
    29    14    15    1
    30    23    28    1
@<TRIPOS>MOLECULE
*****
 28 30 0 0 0
SMALL
GASTEIGER

@<TRIPOS>ATOM
      1 C         142.5218  143.9573  162.3781 C.ar    1  UNL1        0.1535
      2 C         141.0822  144.3476  162.2194 C.ar    1  UNL1        0.0377
      3 C         140.5064  144.5486  160.8490 C.ar    1  UNL1        0.0239
      4 C         141.3701  144.3591  159.6374 C.ar    1  UNL1        0.1059
      5 N         142.8097  143.9688  159.7961 N.ar    1  UNL1       -0.1467
      6 N         143.3855  143.7678  161.1664 N.ar    1  UNL1       -0.1329
      7 C         140.7942  144.5601  158.2669 C.ar    1  UNL1        0.0532
      8 C         139.6096  143.7527  157.8254 C.ar    1  UNL1        0.0069
      9 C         139.0337  143.9537  156.4550 C.ar    1  UNL1        0.0299
     10 C         139.6424  144.9621  155.5261 C.ar    1  UNL1        0.1432
     11 F         139.0665  145.1631  154.1558 F       1  UNL1       -0.2041
     12 C         140.8270  145.7695  155.9677 C.ar    1  UNL1        0.0663
     13 C         141.4028  145.5685  157.3381 C.ar    1  UNL1        0.1373
     14 O         142.5874  146.3759  157.7797 O.3     1  UNL1       -0.5054
     15 H         142.9676  147.0058  157.1995 H       1  UNL1        0.2922
     16 C         143.8885  144.8530  164.3980 C.3     1  UNL1        0.1135
     17 N         143.0977  143.7563  163.7485 N.pl3   1  UNL1       -0.2916
     18 C         142.8828  142.4586  164.4695 C.3     1  UNL1        0.0768
     19 C         142.6341  141.2006  163.6913 C.3     1  UNL1        0.0342
     20 C         142.4192  139.9029  164.4122 C.3     1  UNL1        0.0435
     21 C         142.1614  138.4429  164.6400 C.3     1  UNL1        0.0158
     22 C         142.2958  139.4356  162.9922 C.3     1  UNL1        0.0158
     23 N         142.4530  139.8631  165.9113 N.3     1  UNL1       -0.3015
     24 C         142.7018  141.1212  166.6895 C.3     1  UNL1        0.0435
     25 C         142.8998  142.0392  167.8591 C.3     1  UNL1        0.0158
     26 C         142.5556  140.1423  167.8166 C.3     1  UNL1        0.0158
     27 C         142.9167  142.4189  165.9686 C.3     1  UNL1        0.0342
     28 H         143.1879  139.2055  166.1719 H       1  UNL1        0.1231
@<TRIPOS>BOND
     1    16    17    1
     2    17     1    1
     3     1     2   ar
     4     2     3   ar
     5     3     4   ar
     6     4     7    1
     7     7     8   ar
     8     8     9   ar
     9     9    10   ar
    10    10    11    1
    11    10    12   ar
    12    12    13   ar
    13    13    14    1
    14     4     5   ar
    15     5     6   ar
    16    17    18    1
    17    18    19    1
    18    19    20    1
    19    20    21    1
    20    20    22    1
    21    20    23    1
    22    23    24    1
    23    24    25    1
    24    24    26    1
    25    24    27    1
    26     6     1   ar
    27    27    18    1
    28    13     7   ar
    29    14    15    1
    30    23    28    1
@<TRIPOS>MOLECULE
*****
 28 30 0 0 0
SMALL
GASTEIGER

@<TRIPOS>ATOM
      1 C         139.5960  139.0257  164.9547 C.ar    1  UNL1        0.1535
      2 C         140.0174  137.6594  164.5013 C.ar    1  UNL1        0.0377
      3 C         140.4660  137.4439  163.0863 C.ar    1  UNL1        0.0239
      4 C         140.4931  138.5948  162.1246 C.ar    1  UNL1        0.1059
      5 N         140.0717  139.9611  162.5780 N.ar    1  UNL1       -0.1467
      6 N         139.6231  140.1765  163.9930 N.ar    1  UNL1       -0.1329
      7 C         140.9416  138.3793  160.7095 C.ar    1  UNL1        0.0532
      8 C         139.9946  138.6368  159.5751 C.ar    1  UNL1        0.0069
      9 C         140.4432  138.4213  158.1600 C.ar    1  UNL1        0.0299
     10 C         141.8387  137.9483  157.8794 C.ar    1  UNL1        0.1432
     11 F         142.2873  137.7328  156.4644 F       1  UNL1       -0.2041
     12 C         142.7857  137.6908  159.0139 C.ar    1  UNL1        0.0663
     13 C         142.3371  137.9063  160.4289 C.ar    1  UNL1        0.1373
     14 O         143.2841  137.6488  161.5634 O.3     1  UNL1       -0.5054
     15 H         144.1559  137.3533  161.3881 H       1  UNL1        0.2922
     16 C         137.8208  138.7098  166.8252 C.3     1  UNL1        0.1135
     17 N         139.1475  139.2412  166.3698 N.pl3   1  UNL1       -0.2916
     18 C         140.0257  139.9881  167.3294 C.3     1  UNL1        0.0768
     19 C         139.6902  140.0107  168.7912 C.3     1  UNL1        0.0342
     20 C         140.5684  140.7577  169.7508 C.3     1  UNL1        0.0435
     21 C         141.0877  141.3210  171.0403 C.3     1  UNL1        0.0158
     22 C         139.5350  140.2290  170.7009 C.3     1  UNL1        0.0158
     23 N         141.7821  141.4819  169.2487 N.3     1  UNL1       -0.3015
     24 C         142.1177  141.4593  167.7868 C.3     1  UNL1        0.0435
     25 C         142.8461  141.7285  166.5035 C.3     1  UNL1        0.0158
     26 C         143.2489  142.2997  168.3007 C.3     1  UNL1        0.0158
     27 C         141.2395  140.7124  166.8272 C.3     1  UNL1        0.0342
     28 H         142.5843  141.0888  169.7410 H       1  UNL1        0.1231
@<TRIPOS>BOND
     1    16    17    1
     2    17     1    1
     3     1     2   ar
     4     2     3   ar
     5     3     4   ar
     6     4     7    1
     7     7     8   ar
     8     8     9   ar
     9     9    10   ar
    10    10    11    1
    11    10    12   ar
    12    12    13   ar
    13    13    14    1
    14     4     5   ar
    15     5     6   ar
    16    17    18    1
    17    18    19    1
    18    19    20    1
    19    20    21    1
    20    20    22    1
    21    20    23    1
    22    23    24    1
    23    24    25    1
    24    24    26    1
    25    24    27    1
    26     6     1   ar
    27    27    18    1
    28    13     7   ar
    29    14    15    1
    30    23    28    1
