@<TRIPOS>MOLECULE
*****
 35 39 0 0 0
SMALL
GASTEIGER

@<TRIPOS>ATOM
      1 N         141.8447  140.7391  161.2053 N.3     1  UNL1       -0.2689
      2 C         141.2179  141.6375  162.2299 C.3     1  UNL1        0.0724
      3 C         141.3769  141.3348  163.6904 C.3     1  UNL1        0.0175
      4 C         142.1627  140.1337  164.1262 C.3     1  UNL1        0.0060
      5 C         142.7895  139.2353  163.1016 C.3     1  UNL1        0.0175
      6 C         142.6305  139.5380  161.6411 C.3     1  UNL1        0.0724
      7 C         141.5359  141.0321  165.1510 C.3     1  UNL1        0.0217
      8 C         141.6949  140.7294  166.6114 C.3     1  UNL1        0.0937
      9 N         142.4806  139.5283  167.0473 N.am    1  UNL1       -0.2761
     10 C         142.6396  139.2256  168.5078 C.2     1  UNL1        0.2491
     11 O         143.4253  138.0245  168.9437 O.2     1  UNL1       -0.2699
     12 C         143.1074  138.6299  166.0226 C.3     1  UNL1        0.0937
     13 C         142.9484  138.9326  164.5620 C.3     1  UNL1        0.0217
     14 C         142.0128  140.1240  169.5325 C.ar    1  UNL1        0.0567
     15 C         140.6370  139.8258  170.0503 C.ar    1  UNL1        0.0252
     16 C         140.0102  140.7242  171.0750 C.ar    1  UNL1        0.0990
     17 N         140.7592  141.9209  171.5819 N.ar    1  UNL1       -0.2423
     18 C         142.1351  142.2191  171.0641 C.ar    1  UNL1        0.0990
     19 C         142.7619  141.3206  170.0393 C.ar    1  UNL1        0.0252
     20 C         141.6858  141.0418  159.7447 C.3     1  UNL1        0.1022
     21 C         143.8261  142.3650  159.0983 C.ar    1  UNL1        0.1427
     22 C         145.0383  142.5309  158.2304 C.ar    1  UNL1        0.0372
     23 C         145.3223  141.5395  157.1412 C.ar    1  UNL1        0.0031
     24 C         144.3941  140.3822  156.9198 C.ar    1  UNL1       -0.0001
     25 C         143.1819  140.2162  157.7876 C.ar    1  UNL1        0.0001
     26 C         142.8979  141.2077  158.8769 C.ar    1  UNL1        0.0284
     27 O         143.5421  143.3565  160.1875 O.3     1  UNL1       -0.4507
     28 C         143.6888  144.0450  162.6883 C.ar    1  UNL1        0.1730
     29 C         144.2328  143.8199  164.0680 C.ar    1  UNL1        0.0401
     30 C         145.1741  142.6809  164.3264 C.ar    1  UNL1        0.0033
     31 C         145.5714  141.7671  163.2051 C.ar    1  UNL1        0.0033
     32 C         145.0274  141.9923  161.8255 C.ar    1  UNL1        0.0406
     33 C         144.0861  143.1313  161.5671 C.ar    1  UNL1        0.1789
     34 C         141.3864  145.1899  163.0602 C.3     1  UNL1        0.2526
     35 O         142.7475  145.1840  162.4299 O.3     1  UNL1       -0.4684
@<TRIPOS>BOND
     1    34    35    1
     2    35    28    1
     3    28    29   ar
     4    29    30   ar
     5    30    31   ar
     6    31    32   ar
     7    32    33   ar
     8    33    27    1
     9    27    21    1
    10    21    22   ar
    11    22    23   ar
    12    23    24   ar
    13    24    25   ar
    14    25    26   ar
    15    26    20    1
    16    20     1    1
    17     1     2    1
    18     2     3    1
    19     3     4    1
    20     4     5    1
    21     5     6    1
    22     4     7    1
    23     7     8    1
    24     8     9    1
    25     9    10   am
    26    10    11    2
    27    10    14    1
    28    14    15   ar
    29    15    16   ar
    30    16    17   ar
    31    17    18   ar
    32    18    19   ar
    33     9    12    1
    34    12    13    1
    35    33    28   ar
    36    26    21   ar
    37     6     1    1
    38    19    14   ar
    39    13     4    1
@<TRIPOS>MOLECULE
*****
 35 39 0 0 0
SMALL
GASTEIGER

@<TRIPOS>ATOM
      1 N         141.2024  143.4586  161.1757 N.3     1  UNL1       -0.2689
      2 C         140.9165  144.1839  162.4571 C.3     1  UNL1        0.0724
      3 C         141.2062  143.5244  163.7728 C.3     1  UNL1        0.0175
      4 C         141.7818  142.1397  163.8071 C.3     1  UNL1        0.0060
      5 C         142.0677  141.4144  162.5256 C.3     1  UNL1        0.0175
      6 C         141.7780  142.0739  161.2099 C.3     1  UNL1        0.0724
      7 C         141.4959  142.8650  165.0886 C.3     1  UNL1        0.0217
      8 C         141.7856  142.2055  166.4043 C.3     1  UNL1        0.0937
      9 N         142.3612  140.8208  166.4386 N.am    1  UNL1       -0.2761
     10 C         142.6509  140.1613  167.7544 C.2     1  UNL1        0.2491
     11 O         143.2265  138.7766  167.7886 O.2     1  UNL1       -0.2699
     12 C         142.6471  140.0955  165.1571 C.3     1  UNL1        0.0937
     13 C         142.3574  140.7550  163.8413 C.3     1  UNL1        0.0217
     14 C         142.3650  140.8866  169.0359 C.ar    1  UNL1        0.0567
     15 C         143.2015  142.0668  169.4325 C.ar    1  UNL1        0.0252
     16 C         142.9156  142.7920  170.7139 C.ar    1  UNL1        0.0990
     17 N         141.7930  142.3371  171.5989 N.ar    1  UNL1       -0.2423
     18 C         140.9565  141.1569  171.2022 C.ar    1  UNL1        0.0990
     19 C         141.2424  140.4317  169.9207 C.ar    1  UNL1        0.0252
     20 C         140.9127  144.1181  159.8599 C.3     1  UNL1        0.1022
     21 C         138.8216  142.8339  159.0067 C.ar    1  UNL1        0.1427
     22 C         138.1183  142.0704  157.9238 C.ar    1  UNL1        0.0372
     23 C         138.8029  141.8277  156.6114 C.ar    1  UNL1        0.0031
     24 C         140.1907  142.3485  156.3818 C.ar    1  UNL1       -0.0001
     25 C         140.8940  143.1119  157.4646 C.ar    1  UNL1        0.0001
     26 C         140.2094  143.3546  158.7771 C.ar    1  UNL1        0.0284
     27 O         138.1370  143.0765  160.3191 O.3     1  UNL1       -0.4507
     28 C         137.8692  142.3826  162.8084 C.ar    1  UNL1        0.1730
     29 C         137.8883  141.3244  163.8712 C.ar    1  UNL1        0.0401
     30 C         138.1944  139.9017  163.5076 C.ar    1  UNL1        0.0033
     31 C         138.4814  139.5372  162.0811 C.ar    1  UNL1        0.0033
     32 C         138.4623  140.5955  161.0183 C.ar    1  UNL1        0.0406
     33 C         138.1562  142.0182  161.3819 C.ar    1  UNL1        0.1789
     34 C         137.7038  144.2631  164.5935 C.3     1  UNL1        0.2526
     35 O         137.5630  143.8054  163.1720 O.3     1  UNL1       -0.4684
@<TRIPOS>BOND
     1    34    35    1
     2    35    28    1
     3    28    29   ar
     4    29    30   ar
     5    30    31   ar
     6    31    32   ar
     7    32    33   ar
     8    33    27    1
     9    27    21    1
    10    21    22   ar
    11    22    23   ar
    12    23    24   ar
    13    24    25   ar
    14    25    26   ar
    15    26    20    1
    16    20     1    1
    17     1     2    1
    18     2     3    1
    19     3     4    1
    20     4     5    1
    21     5     6    1
    22     4     7    1
    23     7     8    1
    24     8     9    1
    25     9    10   am
    26    10    11    2
    27    10    14    1
    28    14    15   ar
    29    15    16   ar
    30    16    17   ar
    31    17    18   ar
    32    18    19   ar
    33     9    12    1
    34    12    13    1
    35    33    28   ar
    36    26    21   ar
    37     6     1    1
    38    19    14   ar
    39    13     4    1
@<TRIPOS>MOLECULE
*****
 35 39 0 0 0
SMALL
GASTEIGER

@<TRIPOS>ATOM
      1 N         142.3947  140.4673  161.2650 N.3     1  UNL1       -0.2689
      2 C         141.7743  141.4417  162.2219 C.3     1  UNL1        0.0724
      3 C         141.8316  141.1829  163.6982 C.3     1  UNL1        0.0175
      4 C         142.5093  139.9497  164.2177 C.3     1  UNL1        0.0060
      5 C         143.1298  138.9753  163.2609 C.3     1  UNL1        0.0175
      6 C         143.0724  139.2341  161.7845 C.3     1  UNL1        0.0724
      7 C         141.8889  140.9241  165.1747 C.3     1  UNL1        0.0217
      8 C         141.9462  140.6653  166.6510 C.3     1  UNL1        0.0937
      9 N         142.6240  139.4321  167.1705 N.am    1  UNL1       -0.2761
     10 C         142.6813  139.1734  168.6470 C.2     1  UNL1        0.2491
     11 O         143.3590  137.9402  169.1665 O.2     1  UNL1       -0.2699
     12 C         143.2444  138.4577  166.2137 C.3     1  UNL1        0.0937
     13 C         143.1871  138.7165  164.7372 C.3     1  UNL1        0.0217
     14 C         142.0609  140.1477  169.6038 C.ar    1  UNL1        0.0567
     15 C         140.6579  139.9326  170.0890 C.ar    1  UNL1        0.0252
     16 C         140.0375  140.9070  171.0459 C.ar    1  UNL1        0.0990
     17 N         140.8201  142.0966  171.5176 N.ar    1  UNL1       -0.2423
     18 C         142.2230  142.3118  171.0324 C.ar    1  UNL1        0.0990
     19 C         142.8434  141.3373  170.0755 C.ar    1  UNL1        0.0252
     20 C         142.3374  140.7261  159.7886 C.3     1  UNL1        0.1022
     21 C         140.4629  139.2430  158.7704 C.ar    1  UNL1        0.1427
     22 C         140.0338  138.1526  157.8339 C.ar    1  UNL1        0.0372
     23 C         141.0500  137.4550  156.9792 C.ar    1  UNL1        0.0031
     24 C         142.4953  137.8478  157.0609 C.ar    1  UNL1       -0.0001
     25 C         142.9245  138.9381  157.9973 C.ar    1  UNL1        0.0001
     26 C         141.9082  139.6358  158.8521 C.ar    1  UNL1        0.0284
     27 O         139.4467  139.9406  159.6252 O.3     1  UNL1       -0.4507
     28 C         138.4579  140.3549  161.9918 C.ar    1  UNL1        0.1730
     29 C         138.2153  139.8916  163.3976 C.ar    1  UNL1        0.0401
     30 C         138.7189  138.5507  163.8428 C.ar    1  UNL1        0.0033
     31 C         139.4651  137.6729  162.8821 C.ar    1  UNL1        0.0033
     32 C         139.7077  138.1363  161.4762 C.ar    1  UNL1        0.0406
     33 C         139.2041  139.4773  161.0311 C.ar    1  UNL1        0.1789
     34 C         137.8145  142.8119  162.5391 C.3     1  UNL1        0.2526
     35 O         137.9543  141.6960  161.5466 O.3     1  UNL1       -0.4684
@<TRIPOS>BOND
     1    34    35    1
     2    35    28    1
     3    28    29   ar
     4    29    30   ar
     5    30    31   ar
     6    31    32   ar
     7    32    33   ar
     8    33    27    1
     9    27    21    1
    10    21    22   ar
    11    22    23   ar
    12    23    24   ar
    13    24    25   ar
    14    25    26   ar
    15    26    20    1
    16    20     1    1
    17     1     2    1
    18     2     3    1
    19     3     4    1
    20     4     5    1
    21     5     6    1
    22     4     7    1
    23     7     8    1
    24     8     9    1
    25     9    10   am
    26    10    11    2
    27    10    14    1
    28    14    15   ar
    29    15    16   ar
    30    16    17   ar
    31    17    18   ar
    32    18    19   ar
    33     9    12    1
    34    12    13    1
    35    33    28   ar
    36    26    21   ar
    37     6     1    1
    38    19    14   ar
    39    13     4    1
@<TRIPOS>MOLECULE
*****
 35 39 0 0 0
SMALL
GASTEIGER

@<TRIPOS>ATOM
      1 N         142.3029  139.2002  165.8210 N.3     1  UNL1       -0.2689
      2 C         143.4371  138.9950  164.8611 C.3     1  UNL1        0.0724
      3 C         143.1581  138.8121  163.3987 C.3     1  UNL1        0.0175
      4 C         141.7450  138.8344  162.8962 C.3     1  UNL1        0.0060
      5 C         140.6108  139.0396  163.8561 C.3     1  UNL1        0.0175
      6 C         140.8898  139.2225  165.3185 C.3     1  UNL1        0.0724
      7 C         142.8792  138.6292  161.9362 C.3     1  UNL1        0.0217
      8 C         142.6003  138.4463  160.4738 C.3     1  UNL1        0.0937
      9 N         141.1871  138.4686  159.9713 N.am    1  UNL1       -0.2761
     10 C         140.9082  138.2857  158.5088 C.2     1  UNL1        0.2491
     11 O         139.4950  138.3080  158.0063 O.2     1  UNL1       -0.2699
     12 C         140.0529  138.6738  160.9312 C.3     1  UNL1        0.0937
     13 C         140.3318  138.8567  162.3937 C.3     1  UNL1        0.0217
     14 C         142.0424  138.0805  157.5489 C.ar    1  UNL1        0.0567
     15 C         142.7596  139.2645  156.9713 C.ar    1  UNL1        0.0252
     16 C         143.8938  139.0593  156.0114 C.ar    1  UNL1        0.0990
     17 N         144.3108  137.6700  155.6291 N.ar    1  UNL1       -0.2423
     18 C         143.5936  136.4860  156.2067 C.ar    1  UNL1        0.0990
     19 C         142.4593  136.6913  157.1666 C.ar    1  UNL1        0.0252
     20 C         142.5818  139.3831  167.2835 C.3     1  UNL1        0.1022
     21 C         141.8914  141.8163  167.8775 C.ar    1  UNL1        0.1427
     22 C         141.0633  142.7712  168.6853 C.ar    1  UNL1        0.0372
     23 C         140.0977  142.2478  169.7068 C.ar    1  UNL1        0.0031
     24 C         139.9601  140.7695  169.9206 C.ar    1  UNL1       -0.0001
     25 C         140.7881  139.8146  169.1129 C.ar    1  UNL1        0.0001
     26 C         141.7538  140.3380  168.0913 C.ar    1  UNL1        0.0284
     27 O         142.8571  142.3397  166.8560 O.3     1  UNL1       -0.4507
     28 C         143.4243  142.4869  164.3249 C.ar    1  UNL1        0.1730
     29 C         142.9834  142.6759  162.9037 C.ar    1  UNL1        0.0401
     30 C         141.5344  142.9067  162.5923 C.ar    1  UNL1        0.0033
     31 C         140.5262  142.9486  163.7022 C.ar    1  UNL1        0.0033
     32 C         140.9671  142.7596  165.1234 C.ar    1  UNL1        0.0406
     33 C         142.4162  142.5287  165.4348 C.ar    1  UNL1        0.1789
     34 C         145.7731  141.6406  163.6058 C.3     1  UNL1        0.2526
     35 O         144.8734  142.2560  164.6362 O.3     1  UNL1       -0.4684
@<TRIPOS>BOND
     1    34    35    1
     2    35    28    1
     3    28    29   ar
     4    29    30   ar
     5    30    31   ar
     6    31    32   ar
     7    32    33   ar
     8    33    27    1
     9    27    21    1
    10    21    22   ar
    11    22    23   ar
    12    23    24   ar
    13    24    25   ar
    14    25    26   ar
    15    26    20    1
    16    20     1    1
    17     1     2    1
    18     2     3    1
    19     3     4    1
    20     4     5    1
    21     5     6    1
    22     4     7    1
    23     7     8    1
    24     8     9    1
    25     9    10   am
    26    10    11    2
    27    10    14    1
    28    14    15   ar
    29    15    16   ar
    30    16    17   ar
    31    17    18   ar
    32    18    19   ar
    33     9    12    1
    34    12    13    1
    35    33    28   ar
    36    26    21   ar
    37     6     1    1
    38    19    14   ar
    39    13     4    1
@<TRIPOS>MOLECULE
*****
 35 39 0 0 0
SMALL
GASTEIGER

@<TRIPOS>ATOM
      1 N         142.6312  139.4027  166.3010 N.3     1  UNL1       -0.2689
      2 C         141.7275  138.5238  165.4881 C.3     1  UNL1        0.0724
      3 C         141.8485  138.5019  163.9932 C.3     1  UNL1        0.0175
      4 C         142.8733  139.3590  163.3111 C.3     1  UNL1        0.0060
      5 C         143.7771  140.2378  164.1240 C.3     1  UNL1        0.0175
      6 C         143.6560  140.2597  165.6189 C.3     1  UNL1        0.0724
      7 C         141.9696  138.4800  162.4982 C.3     1  UNL1        0.0217
      8 C         142.0906  138.4582  161.0033 C.3     1  UNL1        0.0937
      9 N         143.1154  139.3152  160.3212 N.am    1  UNL1       -0.2761
     10 C         143.2365  139.2933  158.8262 C.2     1  UNL1        0.2491
     11 O         144.2613  140.1503  158.1441 O.2     1  UNL1       -0.2699
     12 C         144.0192  140.1941  161.1340 C.3     1  UNL1        0.0937
     13 C         143.8982  140.2160  162.6290 C.3     1  UNL1        0.0217
     14 C         142.3327  138.4144  158.0134 C.ar    1  UNL1        0.0567
     15 C         140.8869  138.7768  157.8450 C.ar    1  UNL1        0.0252
     16 C         139.9831  137.8979  157.0322 C.ar    1  UNL1        0.0990
     17 N         140.5252  136.6566  156.3877 N.ar    1  UNL1       -0.2423
     18 C         141.9710  136.2942  156.5560 C.ar    1  UNL1        0.0990
     19 C         142.8747  137.1732  157.3689 C.ar    1  UNL1        0.0252
     20 C         142.5102  139.4246  167.7960 C.3     1  UNL1        0.1022
     21 C         140.7737  141.2447  168.4450 C.ar    1  UNL1        0.1427
     22 C         140.4350  142.5240  169.1515 C.ar    1  UNL1        0.0372
     23 C         141.4942  143.2621  169.9152 C.ar    1  UNL1        0.0031
     24 C         142.8920  142.7210  169.9725 C.ar    1  UNL1       -0.0001
     25 C         143.2307  141.4419  169.2661 C.ar    1  UNL1        0.0001
     26 C         142.1715  140.7037  168.5023 C.ar    1  UNL1        0.0284
     27 O         139.7145  140.5066  167.6813 O.3     1  UNL1       -0.4507
     28 C         138.3873  140.1136  165.4827 C.ar    1  UNL1        0.1730
     29 C         138.1231  140.4550  164.0461 C.ar    1  UNL1        0.0401
     30 C         138.9217  141.5308  163.3717 C.ar    1  UNL1        0.0033
     31 C         139.9846  142.2652  164.1339 C.ar    1  UNL1        0.0033
     32 C         140.2489  141.9238  165.5704 C.ar    1  UNL1        0.0406
     33 C         139.4502  140.8480  166.2448 C.ar    1  UNL1        0.1789
     34 C         138.1118  137.6327  166.2034 C.3     1  UNL1        0.2526
     35 O         137.5887  139.0377  166.1571 O.3     1  UNL1       -0.4684
@<TRIPOS>BOND
     1    34    35    1
     2    35    28    1
     3    28    29   ar
     4    29    30   ar
     5    30    31   ar
     6    31    32   ar
     7    32    33   ar
     8    33    27    1
     9    27    21    1
    10    21    22   ar
    11    22    23   ar
    12    23    24   ar
    13    24    25   ar
    14    25    26   ar
    15    26    20    1
    16    20     1    1
    17     1     2    1
    18     2     3    1
    19     3     4    1
    20     4     5    1
    21     5     6    1
    22     4     7    1
    23     7     8    1
    24     8     9    1
    25     9    10   am
    26    10    11    2
    27    10    14    1
    28    14    15   ar
    29    15    16   ar
    30    16    17   ar
    31    17    18   ar
    32    18    19   ar
    33     9    12    1
    34    12    13    1
    35    33    28   ar
    36    26    21   ar
    37     6     1    1
    38    19    14   ar
    39    13     4    1
@<TRIPOS>MOLECULE
*****
 35 39 0 0 0
SMALL
GASTEIGER

@<TRIPOS>ATOM
      1 N         140.5320  140.1885  161.2797 N.3     1  UNL1       -0.2689
      2 C         141.4442  140.8660  162.2589 C.3     1  UNL1        0.0724
      3 C         141.1408  140.8132  163.7269 C.3     1  UNL1        0.0175
      4 C         139.9252  140.0830  164.2158 C.3     1  UNL1        0.0060
      5 C         139.0129  139.4055  163.2366 C.3     1  UNL1        0.0175
      6 C         139.3164  139.4583  161.7686 C.3     1  UNL1        0.0724
      7 C         140.8374  140.7604  165.1950 C.3     1  UNL1        0.0217
      8 C         140.5340  140.7077  166.6630 C.3     1  UNL1        0.0937
      9 N         139.3183  139.9774  167.1519 N.am    1  UNL1       -0.2761
     10 C         139.0149  139.9247  168.6200 C.2     1  UNL1        0.2491
     11 O         137.7993  139.1945  169.1088 O.2     1  UNL1       -0.2699
     12 C         138.4061  139.3000  166.1727 C.3     1  UNL1        0.0937
     13 C         138.7095  139.3527  164.7046 C.3     1  UNL1        0.0217
     14 C         139.9271  140.6022  169.5992 C.ar    1  UNL1        0.0567
     15 C         141.1517  139.8936  170.0974 C.ar    1  UNL1        0.0252
     16 C         142.0640  140.5711  171.0766 C.ar    1  UNL1        0.0990
     17 N         141.7516  141.9572  171.5576 N.ar    1  UNL1       -0.2423
     18 C         140.5270  142.6657  171.0593 C.ar    1  UNL1        0.0990
     19 C         139.6147  141.9882  170.0801 C.ar    1  UNL1        0.0252
     20 C         140.8354  140.2412  159.8116 C.3     1  UNL1        0.1022
     21 C         139.5016  142.2712  158.8895 C.ar    1  UNL1        0.1427
     22 C         138.4923  142.8370  157.9349 C.ar    1  UNL1        0.0372
     23 C         137.8076  141.9387  156.9479 C.ar    1  UNL1        0.0031
     24 C         138.1322  140.4746  156.9154 C.ar    1  UNL1       -0.0001
     25 C         139.1414  139.9088  157.8700 C.ar    1  UNL1        0.0001
     26 C         139.8262  140.8071  158.8571 C.ar    1  UNL1        0.0284
     27 O         140.1863  143.1695  159.8766 O.3     1  UNL1       -0.4507
     28 C         140.2922  144.2456  162.2389 C.ar    1  UNL1        0.1730
     29 C         139.6714  144.4963  163.5812 C.ar    1  UNL1        0.0401
     30 C         138.3239  143.9215  163.9035 C.ar    1  UNL1        0.0033
     31 C         137.5972  143.0959  162.8834 C.ar    1  UNL1        0.0033
     32 C         138.2180  142.8453  161.5411 C.ar    1  UNL1        0.0406
     33 C         139.5655  143.4201  161.2189 C.ar    1  UNL1        0.1789
     34 C         142.7678  144.6819  162.8955 C.3     1  UNL1        0.2526
     35 O         141.6397  144.8205  161.9166 O.3     1  UNL1       -0.4684
@<TRIPOS>BOND
     1    34    35    1
     2    35    28    1
     3    28    29   ar
     4    29    30   ar
     5    30    31   ar
     6    31    32   ar
     7    32    33   ar
     8    33    27    1
     9    27    21    1
    10    21    22   ar
    11    22    23   ar
    12    23    24   ar
    13    24    25   ar
    14    25    26   ar
    15    26    20    1
    16    20     1    1
    17     1     2    1
    18     2     3    1
    19     3     4    1
    20     4     5    1
    21     5     6    1
    22     4     7    1
    23     7     8    1
    24     8     9    1
    25     9    10   am
    26    10    11    2
    27    10    14    1
    28    14    15   ar
    29    15    16   ar
    30    16    17   ar
    31    17    18   ar
    32    18    19   ar
    33     9    12    1
    34    12    13    1
    35    33    28   ar
    36    26    21   ar
    37     6     1    1
    38    19    14   ar
    39    13     4    1
@<TRIPOS>MOLECULE
*****
 35 39 0 0 0
SMALL
GASTEIGER

@<TRIPOS>ATOM
      1 N         140.2478  144.6683  161.7909 N.3     1  UNL1       -0.2689
      2 C         141.0075  144.9747  163.0474 C.3     1  UNL1        0.0724
      3 C         140.8519  144.0939  164.2515 C.3     1  UNL1        0.0175
      4 C         139.9366  142.9067  164.1991 C.3     1  UNL1        0.0060
      5 C         139.1769  142.6003  162.9426 C.3     1  UNL1        0.0175
      6 C         139.3324  143.4811  161.7385 C.3     1  UNL1        0.0724
      7 C         140.6964  143.2131  165.4557 C.3     1  UNL1        0.0217
      8 C         140.5408  142.3323  166.6598 C.3     1  UNL1        0.0937
      9 N         139.6255  141.1451  166.6074 N.am    1  UNL1       -0.2761
     10 C         139.4699  140.2643  167.8116 C.2     1  UNL1        0.2491
     11 O         138.5546  139.0771  167.7592 O.2     1  UNL1       -0.2699
     12 C         138.8657  140.8387  165.3509 C.3     1  UNL1        0.0937
     13 C         139.0213  141.7195  164.1467 C.3     1  UNL1        0.0217
     14 C         140.2296  140.5707  169.0681 C.ar    1  UNL1        0.0567
     15 C         141.5121  139.8510  169.3635 C.ar    1  UNL1        0.0252
     16 C         142.2719  140.1574  170.6200 C.ar    1  UNL1        0.0990
     17 N         141.7491  141.1835  171.5812 N.ar    1  UNL1       -0.2423
     18 C         140.4666  141.9032  171.2859 C.ar    1  UNL1        0.0990
     19 C         139.7069  141.5967  170.0293 C.ar    1  UNL1        0.0252
     20 C         140.4033  145.5492  160.5867 C.3     1  UNL1        0.1022
     21 C         142.1385  144.1587  159.2428 C.ar    1  UNL1        0.1427
     22 C         142.6107  143.5764  157.9436 C.ar    1  UNL1        0.0372
     23 C         141.8200  143.8023  156.6891 C.ar    1  UNL1        0.0031
     24 C         140.5571  144.6104  156.7338 C.ar    1  UNL1       -0.0001
     25 C         140.0849  145.1927  158.0329 C.ar    1  UNL1        0.0001
     26 C         140.8756  144.9669  159.2875 C.ar    1  UNL1        0.0284
     27 O         142.9291  143.9329  160.4973 O.3     1  UNL1       -0.4507
     28 C         143.5580  142.4253  162.5176 C.ar    1  UNL1        0.1730
     29 C         143.4544  141.1171  163.2442 C.ar    1  UNL1        0.0401
     30 C         142.6182  140.0084  162.6772 C.ar    1  UNL1        0.0033
     31 C         141.8856  140.2079  161.3835 C.ar    1  UNL1        0.0033
     32 C         141.9892  141.5160  160.6568 C.ar    1  UNL1        0.0406
     33 C         142.8255  142.6247  161.2239 C.ar    1  UNL1        0.1789
     34 C         144.4113  143.7790  164.5644 C.3     1  UNL1        0.2526
     35 O         144.3943  143.5340  163.0847 O.3     1  UNL1       -0.4684
@<TRIPOS>BOND
     1    34    35    1
     2    35    28    1
     3    28    29   ar
     4    29    30   ar
     5    30    31   ar
     6    31    32   ar
     7    32    33   ar
     8    33    27    1
     9    27    21    1
    10    21    22   ar
    11    22    23   ar
    12    23    24   ar
    13    24    25   ar
    14    25    26   ar
    15    26    20    1
    16    20     1    1
    17     1     2    1
    18     2     3    1
    19     3     4    1
    20     4     5    1
    21     5     6    1
    22     4     7    1
    23     7     8    1
    24     8     9    1
    25     9    10   am
    26    10    11    2
    27    10    14    1
    28    14    15   ar
    29    15    16   ar
    30    16    17   ar
    31    17    18   ar
    32    18    19   ar
    33     9    12    1
    34    12    13    1
    35    33    28   ar
    36    26    21   ar
    37     6     1    1
    38    19    14   ar
    39    13     4    1
@<TRIPOS>MOLECULE
*****
 35 39 0 0 0
SMALL
GASTEIGER

@<TRIPOS>ATOM
      1 N         141.1220  142.2266  161.0450 N.3     1  UNL1       -0.2689
      2 C         141.9073  142.7324  162.2187 C.3     1  UNL1        0.0724
      3 C         141.5555  142.2834  163.6060 C.3     1  UNL1        0.0175
      4 C         140.4185  141.3287  163.8196 C.3     1  UNL1        0.0060
      5 C         139.6332  140.8229  162.6460 C.3     1  UNL1        0.0175
      6 C         139.9850  141.2719  161.2587 C.3     1  UNL1        0.0724
      7 C         141.2038  141.8345  164.9934 C.3     1  UNL1        0.0217
      8 C         140.8521  141.3856  166.3807 C.3     1  UNL1        0.0937
      9 N         139.7150  140.4308  166.5943 N.am    1  UNL1       -0.2761
     10 C         139.3633  139.9819  167.9817 C.2     1  UNL1        0.2491
     11 O         138.2262  139.0272  168.1954 O.2     1  UNL1       -0.2699
     12 C         138.9297  139.9251  165.4207 C.3     1  UNL1        0.0937
     13 C         139.2815  140.3740  164.0333 C.3     1  UNL1        0.0217
     14 C         140.1486  140.4877  169.1554 C.ar    1  UNL1        0.0567
     15 C         139.6802  141.6995  169.9051 C.ar    1  UNL1        0.0252
     16 C         140.4655  142.2053  171.0787 C.ar    1  UNL1        0.0990
     17 N         141.7192  141.4992  171.5027 N.ar    1  UNL1       -0.2423
     18 C         142.1876  140.2874  170.7530 C.ar    1  UNL1        0.0990
     19 C         141.4022  139.7816  169.5793 C.ar    1  UNL1        0.0252
     20 C         141.4737  142.6756  159.6576 C.3     1  UNL1        0.1022
     21 C         142.6878  140.6518  158.5711 C.ar    1  UNL1        0.1427
     22 C         142.8009  139.6466  157.4635 C.ar    1  UNL1        0.0372
     23 C         141.8129  139.6598  156.3350 C.ar    1  UNL1        0.0031
     24 C         140.7119  140.6782  156.3140 C.ar    1  UNL1       -0.0001
     25 C         140.5988  141.6835  157.4215 C.ar    1  UNL1        0.0001
     26 C         141.5868  141.6703  158.5501 C.ar    1  UNL1        0.0284
     27 O         143.6758  140.6386  159.6997 O.3     1  UNL1       -0.4507
     28 C         144.1890  140.0683  162.1819 C.ar    1  UNL1        0.1730
     29 C         143.9108  139.2574  163.4128 C.ar    1  UNL1        0.0401
     30 C         142.8412  138.2061  163.3924 C.ar    1  UNL1        0.0033
     31 C         142.0497  137.9655  162.1411 C.ar    1  UNL1        0.0033
     32 C         142.3279  138.7763  160.9102 C.ar    1  UNL1        0.0406
     33 C         143.3976  139.8278  160.9306 C.ar    1  UNL1        0.1789
     34 C         145.6931  141.7225  163.5053 C.3     1  UNL1        0.2526
     35 O         145.2587  141.1197  162.2023 O.3     1  UNL1       -0.4684
@<TRIPOS>BOND
     1    34    35    1
     2    35    28    1
     3    28    29   ar
     4    29    30   ar
     5    30    31   ar
     6    31    32   ar
     7    32    33   ar
     8    33    27    1
     9    27    21    1
    10    21    22   ar
    11    22    23   ar
    12    23    24   ar
    13    24    25   ar
    14    25    26   ar
    15    26    20    1
    16    20     1    1
    17     1     2    1
    18     2     3    1
    19     3     4    1
    20     4     5    1
    21     5     6    1
    22     4     7    1
    23     7     8    1
    24     8     9    1
    25     9    10   am
    26    10    11    2
    27    10    14    1
    28    14    15   ar
    29    15    16   ar
    30    16    17   ar
    31    17    18   ar
    32    18    19   ar
    33     9    12    1
    34    12    13    1
    35    33    28   ar
    36    26    21   ar
    37     6     1    1
    38    19    14   ar
    39    13     4    1
@<TRIPOS>MOLECULE
*****
 35 39 0 0 0
SMALL
GASTEIGER

@<TRIPOS>ATOM
      1 N         142.2289  141.1861  164.5422 N.3     1  UNL1       -0.2689
      2 C         141.4936  141.7205  163.3490 C.3     1  UNL1        0.0724
      3 C         141.5420  140.9807  162.0450 C.3     1  UNL1        0.0175
      4 C         142.3257  139.7065  161.9343 C.3     1  UNL1        0.0060
      5 C         143.0609  139.1721  163.1275 C.3     1  UNL1        0.0175
      6 C         143.0125  139.9119  164.4314 C.3     1  UNL1        0.0724
      7 C         141.5904  140.2409  160.7410 C.3     1  UNL1        0.0217
      8 C         141.6388  139.5011  159.4371 C.3     1  UNL1        0.0937
      9 N         142.4224  138.2269  159.3263 N.am    1  UNL1       -0.2761
     10 C         142.4707  137.4871  158.0223 C.2     1  UNL1        0.2491
     11 O         143.2544  136.2128  157.9116 O.2     1  UNL1       -0.2699
     12 C         143.1576  137.6925  160.5195 C.3     1  UNL1        0.0937
     13 C         143.1093  138.4323  161.8236 C.3     1  UNL1        0.0217
     14 C         141.7355  138.0215  156.8291 C.ar    1  UNL1        0.0567
     15 C         140.3195  137.5998  156.5699 C.ar    1  UNL1        0.0252
     16 C         139.5843  138.1342  155.3767 C.ar    1  UNL1        0.0990
     17 N         140.2650  139.0904  154.4427 N.ar    1  UNL1       -0.2423
     18 C         141.6810  139.5121  154.7019 C.ar    1  UNL1        0.0990
     19 C         142.4162  138.9776  155.8951 C.ar    1  UNL1        0.0252
     20 C         142.1805  141.9259  165.8462 C.3     1  UNL1        0.1022
     21 C         140.2956  140.7800  167.2186 C.ar    1  UNL1        0.1427
     22 C         139.8376  140.0780  168.4627 C.ar    1  UNL1        0.0372
     23 C         140.8067  139.8201  169.5782 C.ar    1  UNL1        0.0031
     24 C         142.2337  140.2641  169.4497 C.ar    1  UNL1       -0.0001
     25 C         142.6916  140.9661  168.2058 C.ar    1  UNL1        0.0001
     26 C         141.7226  141.2240  167.0902 C.ar    1  UNL1        0.0284
     27 O         139.3265  141.0379  166.1031 O.3     1  UNL1       -0.4507
     28 C         138.2559  140.3171  163.8483 C.ar    1  UNL1        0.1730
     29 C         138.0574  139.2888  162.7745 C.ar    1  UNL1        0.0401
     30 C         138.7309  137.9528  162.8817 C.ar    1  UNL1        0.0033
     31 C         139.6031  137.6452  164.0628 C.ar    1  UNL1        0.0033
     32 C         139.8016  138.6735  165.1366 C.ar    1  UNL1        0.0406
     33 C         139.1280  140.0095  165.0293 C.ar    1  UNL1        0.1789
     34 C         137.8857  142.5551  162.5817 C.3     1  UNL1        0.2526
     35 O         137.5823  141.6531  163.7411 O.3     1  UNL1       -0.4684
@<TRIPOS>BOND
     1    34    35    1
     2    35    28    1
     3    28    29   ar
     4    29    30   ar
     5    30    31   ar
     6    31    32   ar
     7    32    33   ar
     8    33    27    1
     9    27    21    1
    10    21    22   ar
    11    22    23   ar
    12    23    24   ar
    13    24    25   ar
    14    25    26   ar
    15    26    20    1
    16    20     1    1
    17     1     2    1
    18     2     3    1
    19     3     4    1
    20     4     5    1
    21     5     6    1
    22     4     7    1
    23     7     8    1
    24     8     9    1
    25     9    10   am
    26    10    11    2
    27    10    14    1
    28    14    15   ar
    29    15    16   ar
    30    16    17   ar
    31    17    18   ar
    32    18    19   ar
    33     9    12    1
    34    12    13    1
    35    33    28   ar
    36    26    21   ar
    37     6     1    1
    38    19    14   ar
    39    13     4    1
