@<TRIPOS>MOLECULE
*****
 36 40 0 0 0
SMALL
GASTEIGER

@<TRIPOS>ATOM
      1 N         141.6612  140.5519  160.2693 N.3     1  UNL1       -0.2695
      2 C         141.6130  139.6589  161.4735 C.3     1  UNL1        0.0939
      3 C         140.4327  139.7094  162.3979 C.3     1  UNL1        0.1107
      4 N         139.3007  140.6529  162.1180 N.am    1  UNL1       -0.2764
      5 C         138.1204  140.7034  163.0423 C.2     1  UNL1        0.2301
      6 O         136.9884  141.6469  162.7624 O.2     1  UNL1       -0.2745
      7 C         139.3489  141.5459  160.9137 C.3     1  UNL1        0.1107
      8 C         140.5292  141.4955  159.9894 C.3     1  UNL1        0.0939
      9 C         142.8415  140.5015  159.3449 C.3     1  UNL1        0.0769
     10 C         144.1385  141.1374  159.7492 C.3     1  UNL1        0.0437
     11 O         145.0346  143.7418  166.3101 O.2     1  UNL1       -0.2449
     12 C         144.4809  144.0561  164.9520 C.2     1  UNL1        0.3413
     13 O         143.8057  145.3335  164.5491 O.3     1  UNL1       -0.4404
     14 C         143.4127  145.2150  163.1063 C.3     1  UNL1        0.2356
     15 C         143.8449  143.8643  162.6176 C.ar    1  UNL1        0.0272
     16 C         143.7227  143.1941  161.2812 C.ar    1  UNL1       -0.0047
     17 C         144.2607  141.8077  161.0856 C.ar    1  UNL1       -0.0210
     18 C         144.9209  141.0915  162.2262 C.ar    1  UNL1       -0.0040
     19 C         145.0431  141.7617  163.5626 C.ar    1  UNL1        0.0059
     20 C         144.5051  143.1481  163.7582 C.ar    1  UNL1        0.0751
     21 C         138.0722  139.8103  164.2465 C.3     1  UNL1        0.1115
     22 C         138.6850  140.2609  165.5394 C.ar    1  UNL1       -0.0091
     23 C         139.3027  141.6239  165.6418 C.ar    1  UNL1       -0.0023
     24 C         139.9155  142.0744  166.9347 C.ar    1  UNL1        0.0189
     25 C         139.9106  141.1618  168.1251 C.ar    1  UNL1        0.0862
     26 C         139.2929  139.7988  168.0227 C.ar    1  UNL1        0.0228
     27 C         138.6801  139.3483  166.7299 C.ar    1  UNL1        0.0694
     28 N         140.5234  141.6124  169.4180 N.ar    1  UNL1       -0.1886
     29 C         141.8495  142.2959  169.5742 C.ar    1  UNL1        0.2258
     30 N         142.0635  142.5645  171.0343 N.ar    1  UNL1       -0.1045
     31 N         140.8696  142.0470  171.7806 N.ar    1  UNL1       -0.0222
     32 N         139.9178  141.4586  170.7816 N.ar    1  UNL1       -0.0385
     33 C         138.0624  137.9852  166.6275 C.3     1  UNL1        0.4183
     34 F         137.4448  136.6221  166.5250 F       1  UNL1       -0.1659
     35 F         136.9377  138.4281  167.5156 F       1  UNL1       -0.1659
     36 F         139.1871  137.5423  165.7394 F       1  UNL1       -0.1659
@<TRIPOS>BOND
     1    11    12    2
     2    12    13    1
     3    13    14    1
     4    14    15    1
     5    15    16   ar
     6    16    17   ar
     7    17    10    1
     8    10     9    1
     9     9     1    1
    10     1     2    1
    11     2     3    1
    12     3     4    1
    13     4     5   am
    14     5     6    2
    15     5    21    1
    16    21    22    1
    17    22    23   ar
    18    23    24   ar
    19    24    25   ar
    20    25    28    1
    21    28    29   ar
    22    29    30   ar
    23    30    31   ar
    24    31    32   ar
    25    25    26   ar
    26    26    27   ar
    27    27    33    1
    28    33    34    1
    29    33    35    1
    30    33    36    1
    31     4     7    1
    32     7     8    1
    33    17    18   ar
    34    18    19   ar
    35    19    20   ar
    36    20    12    1
    37    20    15   ar
    38     8     1    1
    39    27    22   ar
    40    32    28   ar
@<TRIPOS>MOLECULE
*****
 36 40 0 0 0
SMALL
GASTEIGER

@<TRIPOS>ATOM
      1 N         143.0505  139.8703  159.9507 N.3     1  UNL1       -0.2695
      2 C         143.6553  139.6448  161.3047 C.3     1  UNL1        0.0939
      3 C         142.8375  139.0218  162.3970 C.3     1  UNL1        0.1107
      4 N         141.4150  138.6245  162.1354 N.am    1  UNL1       -0.2764
      5 C         140.5973  138.0015  163.2277 C.2     1  UNL1        0.2301
      6 O         139.1747  137.6041  162.9661 O.2     1  UNL1       -0.2745
      7 C         140.8102  138.8500  160.7814 C.3     1  UNL1        0.1107
      8 C         141.6279  139.4729  159.6890 C.3     1  UNL1        0.0939
      9 C         143.8682  140.4933  158.8583 C.3     1  UNL1        0.0769
     10 C         144.1448  141.9674  158.8761 C.3     1  UNL1        0.0437
     11 O         139.1964  146.4462  161.3431 O.2     1  UNL1       -0.2449
     12 C         140.4261  145.6768  161.7251 C.2     1  UNL1        0.3413
     13 O         141.0757  145.6674  163.0771 O.3     1  UNL1       -0.4404
     14 C         142.2731  144.7665  163.0096 C.3     1  UNL1        0.2356
     15 C         142.3635  144.2191  161.6160 C.ar    1  UNL1        0.0272
     16 C         143.3378  143.2810  160.9674 C.ar    1  UNL1       -0.0047
     17 C         143.1705  142.9055  159.5248 C.ar    1  UNL1       -0.0210
     18 C         142.0289  143.4681  158.7309 C.ar    1  UNL1       -0.0040
     19 C         141.0547  144.4062  159.3796 C.ar    1  UNL1        0.0059
     20 C         141.2219  144.7817  160.8221 C.ar    1  UNL1        0.0751
     21 C         141.2021  137.7760  164.5817 C.3     1  UNL1        0.1115
     22 C         140.9614  138.7638  165.6847 C.ar    1  UNL1       -0.0091
     23 C         139.5590  139.1068  166.0915 C.ar    1  UNL1       -0.0023
     24 C         139.3184  140.0946  167.1944 C.ar    1  UNL1        0.0189
     25 C         140.4802  140.7394  167.8904 C.ar    1  UNL1        0.0862
     26 C         141.8826  140.3964  167.4835 C.ar    1  UNL1        0.0228
     27 C         142.1232  139.4086  166.3807 C.ar    1  UNL1        0.0694
     28 N         140.2395  141.7272  168.9933 N.ar    1  UNL1       -0.1886
     29 C         140.5060  143.2020  168.9297 C.ar    1  UNL1        0.2258
     30 N         140.1213  143.8000  170.2505 N.ar    1  UNL1       -0.1045
     31 N         139.6171  142.6947  171.1304 N.ar    1  UNL1       -0.0222
     32 N         139.6901  141.4137  170.3534 N.ar    1  UNL1       -0.0385
     33 C         143.5257  139.0656  165.9738 C.3     1  UNL1        0.4183
     34 F         144.9281  138.7226  165.5669 F       1  UNL1       -0.1659
     35 F         143.6074  140.3375  165.1830 F       1  UNL1       -0.1659
     36 F         143.4440  137.7937  166.7646 F       1  UNL1       -0.1659
@<TRIPOS>BOND
     1    11    12    2
     2    12    13    1
     3    13    14    1
     4    14    15    1
     5    15    16   ar
     6    16    17   ar
     7    17    10    1
     8    10     9    1
     9     9     1    1
    10     1     2    1
    11     2     3    1
    12     3     4    1
    13     4     5   am
    14     5     6    2
    15     5    21    1
    16    21    22    1
    17    22    23   ar
    18    23    24   ar
    19    24    25   ar
    20    25    28    1
    21    28    29   ar
    22    29    30   ar
    23    30    31   ar
    24    31    32   ar
    25    25    26   ar
    26    26    27   ar
    27    27    33    1
    28    33    34    1
    29    33    35    1
    30    33    36    1
    31     4     7    1
    32     7     8    1
    33    17    18   ar
    34    18    19   ar
    35    19    20   ar
    36    20    12    1
    37    20    15   ar
    38     8     1    1
    39    27    22   ar
    40    32    28   ar
@<TRIPOS>MOLECULE
*****
 36 40 0 0 0
SMALL
GASTEIGER

@<TRIPOS>ATOM
      1 N         142.9095  141.6452  161.2952 N.3     1  UNL1       -0.2695
      2 C         143.3497  141.4780  162.7194 C.3     1  UNL1        0.0939
      3 C         142.9315  140.2648  163.4962 C.3     1  UNL1        0.1107
      4 N         142.0731  139.2189  162.8489 N.am    1  UNL1       -0.2764
      5 C         141.6549  138.0058  163.6257 C.2     1  UNL1        0.2301
      6 O         140.7964  136.9598  162.9784 O.2     1  UNL1       -0.2745
      7 C         141.6328  139.3861  161.4248 C.3     1  UNL1        0.1107
      8 C         142.0510  140.5992  160.6479 C.3     1  UNL1        0.0939
      9 C         143.3276  142.8582  160.5184 C.3     1  UNL1        0.0769
     10 C         142.5024  144.1093  160.5797 C.3     1  UNL1        0.0437
     11 O         138.4381  145.4020  166.2755 O.2     1  UNL1       -0.2449
     12 C         138.4374  144.7901  164.9060 C.2     1  UNL1        0.3413
     13 O         137.2687  144.1307  164.2355 O.3     1  UNL1       -0.4404
     14 C         137.7143  143.6632  162.8817 C.3     1  UNL1        0.2356
     15 C         139.1583  144.0336  162.7155 C.ar    1  UNL1        0.0272
     16 C         140.1240  143.8267  161.5865 C.ar    1  UNL1       -0.0047
     17 C         141.5366  144.3162  161.7086 C.ar    1  UNL1       -0.0210
     18 C         141.9835  145.0127  162.9597 C.ar    1  UNL1       -0.0040
     19 C         141.0178  145.2196  164.0887 C.ar    1  UNL1        0.0059
     20 C         139.6052  144.7300  163.9666 C.ar    1  UNL1        0.0751
     21 C         142.0952  137.8386  165.0499 C.3     1  UNL1        0.1115
     22 C         141.6772  138.8391  166.0865 C.ar    1  UNL1       -0.0091
     23 C         142.6567  139.2946  167.1272 C.ar    1  UNL1       -0.0023
     24 C         142.2386  140.2950  168.1637 C.ar    1  UNL1        0.0189
     25 C         140.8411  140.8398  168.1596 C.ar    1  UNL1        0.0862
     26 C         139.8616  140.3843  167.1189 C.ar    1  UNL1        0.0228
     27 C         140.2796  139.3839  166.0824 C.ar    1  UNL1        0.0694
     28 N         140.4231  141.8402  169.1962 N.ar    1  UNL1       -0.1886
     29 C         140.4889  143.3325  169.0584 C.ar    1  UNL1        0.2258
     30 N         139.9724  143.9386  170.3295 N.ar    1  UNL1       -0.1045
     31 N         139.5873  142.8209  171.2529 N.ar    1  UNL1       -0.0222
     32 N         139.8659  141.5241  170.5525 N.ar    1  UNL1       -0.0385
     33 C         139.3001  138.9284  165.0416 C.3     1  UNL1        0.4183
     34 F         138.3207  138.4729  164.0009 F       1  UNL1       -0.1659
     35 F         139.1288  137.6292  165.7714 F       1  UNL1       -0.1659
     36 F         139.4714  140.2276  164.3118 F       1  UNL1       -0.1659
@<TRIPOS>BOND
     1    11    12    2
     2    12    13    1
     3    13    14    1
     4    14    15    1
     5    15    16   ar
     6    16    17   ar
     7    17    10    1
     8    10     9    1
     9     9     1    1
    10     1     2    1
    11     2     3    1
    12     3     4    1
    13     4     5   am
    14     5     6    2
    15     5    21    1
    16    21    22    1
    17    22    23   ar
    18    23    24   ar
    19    24    25   ar
    20    25    28    1
    21    28    29   ar
    22    29    30   ar
    23    30    31   ar
    24    31    32   ar
    25    25    26   ar
    26    26    27   ar
    27    27    33    1
    28    33    34    1
    29    33    35    1
    30    33    36    1
    31     4     7    1
    32     7     8    1
    33    17    18   ar
    34    18    19   ar
    35    19    20   ar
    36    20    12    1
    37    20    15   ar
    38     8     1    1
    39    27    22   ar
    40    32    28   ar
@<TRIPOS>MOLECULE
*****
 36 40 0 0 0
SMALL
GASTEIGER

@<TRIPOS>ATOM
      1 N         142.1215  138.2609  159.2182 N.3     1  UNL1       -0.2695
      2 C         142.8795  138.0057  160.4872 C.3     1  UNL1        0.0939
      3 C         142.1484  137.9275  161.7947 C.3     1  UNL1        0.1107
      4 N         140.6594  138.1045  161.8331 N.am    1  UNL1       -0.2764
      5 C         139.9284  138.0262  163.1406 C.2     1  UNL1        0.2301
      6 O         138.4393  138.2032  163.1791 O.2     1  UNL1       -0.2745
      7 C         139.9014  138.3597  160.5642 C.3     1  UNL1        0.1107
      8 C         140.6324  138.4379  159.2567 C.3     1  UNL1        0.0939
      9 C         142.8525  138.3392  157.9108 C.3     1  UNL1        0.0769
     10 C         142.2541  137.7270  156.6791 C.3     1  UNL1        0.0437
     11 O         141.8902  130.7497  155.3312 O.2     1  UNL1       -0.2449
     12 C         142.6280  131.7895  156.1214 C.2     1  UNL1        0.3413
     13 O         143.7662  131.5366  157.0650 O.3     1  UNL1       -0.4404
     14 C         144.1988  132.8556  157.6334 C.3     1  UNL1        0.2356
     15 C         143.3280  133.9237  157.0411 C.ar    1  UNL1        0.0272
     16 C         143.2936  135.4111  157.2319 C.ar    1  UNL1       -0.0047
     17 C         142.2885  136.2396  156.4882 C.ar    1  UNL1       -0.0210
     18 C         141.3176  135.5807  155.5537 C.ar    1  UNL1       -0.0040
     19 C         141.3520  134.0933  155.3629 C.ar    1  UNL1        0.0059
     20 C         142.3572  133.2648  156.1066 C.ar    1  UNL1        0.0751
     21 C         140.6864  137.7710  164.4096 C.3     1  UNL1        0.1115
     22 C         140.5763  138.7329  165.5553 C.ar    1  UNL1       -0.0091
     23 C         139.2408  139.0020  166.1830 C.ar    1  UNL1       -0.0023
     24 C         139.1308  139.9639  167.3287 C.ar    1  UNL1        0.0189
     25 C         140.3562  140.6567  167.8467 C.ar    1  UNL1        0.0862
     26 C         141.6917  140.3876  167.2190 C.ar    1  UNL1        0.0228
     27 C         141.8017  139.4257  166.0734 C.ar    1  UNL1        0.0694
     28 N         140.2461  141.6186  168.9925 N.ar    1  UNL1       -0.1886
     29 C         140.7527  143.0303  169.0102 C.ar    1  UNL1        0.2258
     30 N         140.4298  143.6219  170.3503 N.ar    1  UNL1       -0.1045
     31 N         139.7236  142.5757  171.1607 N.ar    1  UNL1       -0.0222
     32 N         139.6101  141.3376  170.3216 N.ar    1  UNL1       -0.0385
     33 C         143.1373  139.1566  165.4456 C.3     1  UNL1        0.4183
     34 F         144.4728  138.8875  164.8179 F       1  UNL1       -0.1659
     35 F         143.3763  138.0492  166.4287 F       1  UNL1       -0.1659
     36 F         142.8983  140.2640  164.4625 F       1  UNL1       -0.1659
@<TRIPOS>BOND
     1    11    12    2
     2    12    13    1
     3    13    14    1
     4    14    15    1
     5    15    16   ar
     6    16    17   ar
     7    17    10    1
     8    10     9    1
     9     9     1    1
    10     1     2    1
    11     2     3    1
    12     3     4    1
    13     4     5   am
    14     5     6    2
    15     5    21    1
    16    21    22    1
    17    22    23   ar
    18    23    24   ar
    19    24    25   ar
    20    25    28    1
    21    28    29   ar
    22    29    30   ar
    23    30    31   ar
    24    31    32   ar
    25    25    26   ar
    26    26    27   ar
    27    27    33    1
    28    33    34    1
    29    33    35    1
    30    33    36    1
    31     4     7    1
    32     7     8    1
    33    17    18   ar
    34    18    19   ar
    35    19    20   ar
    36    20    12    1
    37    20    15   ar
    38     8     1    1
    39    27    22   ar
    40    32    28   ar
@<TRIPOS>MOLECULE
*****
 36 40 0 0 0
SMALL
GASTEIGER

@<TRIPOS>ATOM
      1 N         141.2372  139.2359  159.8041 N.3     1  UNL1       -0.2695
      2 C         140.4480  138.5916  160.9050 C.3     1  UNL1        0.0939
      3 C         141.0523  138.4364  162.2692 C.3     1  UNL1        0.1107
      4 N         142.4456  138.9256  162.5324 N.am    1  UNL1       -0.2764
      5 C         143.0498  138.7704  163.8965 C.2     1  UNL1        0.2301
      6 O         144.4432  139.2596  164.1597 O.2     1  UNL1       -0.2745
      7 C         143.2348  139.5700  161.4314 C.3     1  UNL1        0.1107
      8 C         142.6306  139.7251  160.0673 C.3     1  UNL1        0.0939
      9 C         140.6330  139.3911  158.4399 C.3     1  UNL1        0.0769
     10 C         139.6854  140.5205  158.1634 C.3     1  UNL1        0.0437
     11 O         140.1101  146.5081  161.9844 O.2     1  UNL1       -0.2449
     12 C         139.4211  145.1786  161.8966 C.2     1  UNL1        0.3413
     13 O         138.3826  144.6594  162.8463 O.3     1  UNL1       -0.4404
     14 C         137.9693  143.2948  162.3803 C.3     1  UNL1        0.2356
     15 C         138.7523  142.9707  161.1426 C.ar    1  UNL1        0.0272
     16 C         138.7643  141.7659  160.2492 C.ar    1  UNL1       -0.0047
     17 C         139.6734  141.7253  159.0569 C.ar    1  UNL1       -0.0210
     18 C         140.5707  142.8896  158.7579 C.ar    1  UNL1       -0.0040
     19 C         140.5588  144.0945  159.6513 C.ar    1  UNL1        0.0059
     20 C         139.6496  144.1350  160.8437 C.ar    1  UNL1        0.0751
     21 C         142.2606  138.1261  164.9974 C.3     1  UNL1        0.1115
     22 C         141.8795  138.9208  166.2112 C.ar    1  UNL1       -0.0091
     23 C         142.8751  139.1306  167.3133 C.ar    1  UNL1       -0.0023
     24 C         142.4940  139.9252  168.5271 C.ar    1  UNL1        0.0189
     25 C         141.1173  140.5102  168.6387 C.ar    1  UNL1        0.0862
     26 C         140.1217  140.3005  167.5365 C.ar    1  UNL1        0.0228
     27 C         140.5028  139.5058  166.3228 C.ar    1  UNL1        0.0694
     28 N         140.7362  141.3049  169.8525 N.ar    1  UNL1       -0.1886
     29 C         139.8412  142.5085  169.8730 C.ar    1  UNL1        0.2258
     30 N         139.7350  142.9830  171.2920 N.ar    1  UNL1       -0.1045
     31 N         140.5644  142.0727  172.1485 N.ar    1  UNL1       -0.0222
     32 N         141.1831  141.0356  171.2588 N.ar    1  UNL1       -0.0385
     33 C         139.5071  139.2960  165.2206 C.3     1  UNL1        0.4183
     34 F         138.5116  139.0862  164.1185 F       1  UNL1       -0.1659
     35 F         139.9464  140.5790  164.5796 F       1  UNL1       -0.1659
     36 F         139.0679  138.0130  165.8616 F       1  UNL1       -0.1659
@<TRIPOS>BOND
     1    11    12    2
     2    12    13    1
     3    13    14    1
     4    14    15    1
     5    15    16   ar
     6    16    17   ar
     7    17    10    1
     8    10     9    1
     9     9     1    1
    10     1     2    1
    11     2     3    1
    12     3     4    1
    13     4     5   am
    14     5     6    2
    15     5    21    1
    16    21    22    1
    17    22    23   ar
    18    23    24   ar
    19    24    25   ar
    20    25    28    1
    21    28    29   ar
    22    29    30   ar
    23    30    31   ar
    24    31    32   ar
    25    25    26   ar
    26    26    27   ar
    27    27    33    1
    28    33    34    1
    29    33    35    1
    30    33    36    1
    31     4     7    1
    32     7     8    1
    33    17    18   ar
    34    18    19   ar
    35    19    20   ar
    36    20    12    1
    37    20    15   ar
    38     8     1    1
    39    27    22   ar
    40    32    28   ar
@<TRIPOS>MOLECULE
*****
 36 40 0 0 0
SMALL
GASTEIGER

@<TRIPOS>ATOM
      1 N         140.9496  138.3379  158.6918 N.3     1  UNL1       -0.2695
      2 C         139.8003  139.0076  159.3852 C.3     1  UNL1        0.0939
      3 C         139.9742  139.5486  160.7734 C.3     1  UNL1        0.1107
      4 N         141.2973  139.4199  161.4682 N.am    1  UNL1       -0.2764
      5 C         141.4712  139.9609  162.8564 C.2     1  UNL1        0.2301
      6 O         142.7944  139.8322  163.5512 O.2     1  UNL1       -0.2745
      7 C         142.4466  138.7502  160.7748 C.3     1  UNL1        0.1107
      8 C         142.2727  138.2093  159.3866 C.3     1  UNL1        0.0939
      9 C         140.7757  137.7969  157.3036 C.3     1  UNL1        0.0769
     10 C         141.9639  137.2876  156.5429 C.3     1  UNL1        0.0437
     11 O         142.6974  130.2572  155.7251 O.2     1  UNL1       -0.2449
     12 C         143.2527  131.4538  156.4393 C.2     1  UNL1        0.3413
     13 O         144.3985  131.4495  157.4072 O.3     1  UNL1       -0.4404
     14 C         144.6135  132.8577  157.8771 C.3     1  UNL1        0.2356
     15 C         143.6006  133.7323  157.1995 C.ar    1  UNL1        0.0272
     16 C         143.3354  135.2066  157.2768 C.ar    1  UNL1       -0.0047
     17 C         142.2291  135.8132  156.4656 C.ar    1  UNL1       -0.0210
     18 C         141.3880  134.9454  155.5769 C.ar    1  UNL1       -0.0040
     19 C         141.6532  133.4711  155.4996 C.ar    1  UNL1        0.0059
     20 C         142.7595  132.8645  156.3109 C.ar    1  UNL1        0.0751
     21 C         140.3220  140.6305  163.5498 C.3     1  UNL1        0.1115
     22 C         140.3495  140.8169  165.0379 C.ar    1  UNL1       -0.0091
     23 C         140.9412  142.0630  165.6269 C.ar    1  UNL1       -0.0023
     24 C         140.9687  142.2493  167.1150 C.ar    1  UNL1        0.0189
     25 C         140.4046  141.1894  168.0141 C.ar    1  UNL1        0.0862
     26 C         139.8129  139.9433  167.4252 C.ar    1  UNL1        0.0228
     27 C         139.7854  139.7570  165.9371 C.ar    1  UNL1        0.0694
     28 N         140.4322  141.3758  169.5023 N.ar    1  UNL1       -0.1886
     29 C         140.1437  142.6516  170.2366 C.ar    1  UNL1        0.2258
     30 N         140.2862  142.3834  171.7055 N.ar    1  UNL1       -0.1045
     31 N         140.6629  140.9418  171.8791 N.ar    1  UNL1       -0.0222
     32 N         140.7530  140.3191  170.5174 N.ar    1  UNL1       -0.0385
     33 C         139.1937  138.5107  165.3480 C.3     1  UNL1        0.4183
     34 F         138.6021  137.2646  164.7590 F       1  UNL1       -0.1659
     35 F         140.5511  137.8724  165.3350 F       1  UNL1       -0.1659
     36 F         137.8364  139.1491  165.3610 F       1  UNL1       -0.1659
@<TRIPOS>BOND
     1    11    12    2
     2    12    13    1
     3    13    14    1
     4    14    15    1
     5    15    16   ar
     6    16    17   ar
     7    17    10    1
     8    10     9    1
     9     9     1    1
    10     1     2    1
    11     2     3    1
    12     3     4    1
    13     4     5   am
    14     5     6    2
    15     5    21    1
    16    21    22    1
    17    22    23   ar
    18    23    24   ar
    19    24    25   ar
    20    25    28    1
    21    28    29   ar
    22    29    30   ar
    23    30    31   ar
    24    31    32   ar
    25    25    26   ar
    26    26    27   ar
    27    27    33    1
    28    33    34    1
    29    33    35    1
    30    33    36    1
    31     4     7    1
    32     7     8    1
    33    17    18   ar
    34    18    19   ar
    35    19    20   ar
    36    20    12    1
    37    20    15   ar
    38     8     1    1
    39    27    22   ar
    40    32    28   ar
@<TRIPOS>MOLECULE
*****
 36 40 0 0 0
SMALL
GASTEIGER

@<TRIPOS>ATOM
      1 N         142.5903  143.0474  159.6447 N.3     1  UNL1       -0.2695
      2 C         143.0549  143.5906  160.9634 C.3     1  UNL1        0.0939
      3 C         143.5960  142.6608  162.0089 C.3     1  UNL1        0.1107
      4 N         143.6724  141.1879  161.7356 N.am    1  UNL1       -0.2764
      5 C         144.2135  140.2583  162.7810 C.2     1  UNL1        0.2301
      6 O         144.2899  138.7853  162.5077 O.2     1  UNL1       -0.2745
      7 C         143.2077  140.6447  160.4168 C.3     1  UNL1        0.1107
      8 C         142.6667  141.5744  159.3714 C.3     1  UNL1        0.0939
      9 C         142.0492  143.9771  158.5993 C.3     1  UNL1        0.0769
     10 C         140.7343  144.6655  158.8160 C.3     1  UNL1        0.0437
     11 O         137.6795  144.7619  165.2418 O.2     1  UNL1       -0.2449
     12 C         137.8595  143.9352  164.0032 C.2     1  UNL1        0.3413
     13 O         137.2852  142.5705  163.7629 O.3     1  UNL1       -0.4404
     14 C         137.7162  142.1200  162.3986 C.3     1  UNL1        0.2356
     15 C         138.5569  143.2062  161.7958 C.ar    1  UNL1        0.0272
     16 C         139.2531  143.3186  160.4720 C.ar    1  UNL1       -0.0047
     17 C         140.0380  144.5530  160.1399 C.ar    1  UNL1       -0.0210
     18 C         140.1265  145.6749  161.1316 C.ar    1  UNL1       -0.0040
     19 C         139.4303  145.5624  162.4554 C.ar    1  UNL1        0.0059
     20 C         138.6454  144.3281  162.7875 C.ar    1  UNL1        0.0751
     21 C         144.6781  140.8015  164.0997 C.3     1  UNL1        0.1115
     22 C         143.7607  140.7768  165.2862 C.ar    1  UNL1       -0.0091
     23 C         143.3158  139.4657  165.8632 C.ar    1  UNL1       -0.0023
     24 C         142.3984  139.4411  167.0497 C.ar    1  UNL1        0.0189
     25 C         141.9259  140.7277  167.6591 C.ar    1  UNL1        0.0862
     26 C         142.3707  142.0389  167.0821 C.ar    1  UNL1        0.0228
     27 C         143.2881  142.0634  165.8956 C.ar    1  UNL1        0.0694
     28 N         141.0084  140.7031  168.8456 N.ar    1  UNL1       -0.1886
     29 C         140.1339  141.8309  169.3075 C.ar    1  UNL1        0.2258
     30 N         139.3894  141.3713  170.5258 N.ar    1  UNL1       -0.1045
     31 N         139.8038  139.9593  170.8170 N.ar    1  UNL1       -0.0222
     32 N         140.8044  139.5464  169.7786 N.ar    1  UNL1       -0.0385
     33 C         143.7330  143.3746  165.3186 C.3     1  UNL1        0.4183
     34 F         144.1778  144.6857  164.7415 F       1  UNL1       -0.1659
     35 F         145.0838  143.1918  165.9445 F       1  UNL1       -0.1659
     36 F         142.3822  143.5574  164.6926 F       1  UNL1       -0.1659
@<TRIPOS>BOND
     1    11    12    2
     2    12    13    1
     3    13    14    1
     4    14    15    1
     5    15    16   ar
     6    16    17   ar
     7    17    10    1
     8    10     9    1
     9     9     1    1
    10     1     2    1
    11     2     3    1
    12     3     4    1
    13     4     5   am
    14     5     6    2
    15     5    21    1
    16    21    22    1
    17    22    23   ar
    18    23    24   ar
    19    24    25   ar
    20    25    28    1
    21    28    29   ar
    22    29    30   ar
    23    30    31   ar
    24    31    32   ar
    25    25    26   ar
    26    26    27   ar
    27    27    33    1
    28    33    34    1
    29    33    35    1
    30    33    36    1
    31     4     7    1
    32     7     8    1
    33    17    18   ar
    34    18    19   ar
    35    19    20   ar
    36    20    12    1
    37    20    15   ar
    38     8     1    1
    39    27    22   ar
    40    32    28   ar
@<TRIPOS>MOLECULE
*****
 36 40 0 0 0
SMALL
GASTEIGER

@<TRIPOS>ATOM
      1 N         139.7500  142.3494  159.1452 N.3     1  UNL1       -0.2695
      2 C         139.0947  142.6723  160.4552 C.3     1  UNL1        0.0939
      3 C         139.8745  143.3651  161.5332 C.3     1  UNL1        0.1107
      4 N         141.3095  143.7350  161.3011 N.am    1  UNL1       -0.2764
      5 C         142.0892  144.4278  162.3791 C.2     1  UNL1        0.2301
      6 O         143.5243  144.7977  162.1470 O.2     1  UNL1       -0.2745
      7 C         141.9648  143.4121  159.9911 C.3     1  UNL1        0.1107
      8 C         141.1851  142.7193  158.9131 C.3     1  UNL1        0.0939
      9 C         138.9703  141.6566  158.0672 C.3     1  UNL1        0.0769
     10 C         138.4871  140.2520  158.2758 C.3     1  UNL1        0.0437
     11 O         138.7966  137.1915  164.6922 O.2     1  UNL1       -0.2449
     12 C         139.6010  137.5103  163.4669 C.2     1  UNL1        0.3413
     13 O         141.0446  137.1681  163.2463 O.3     1  UNL1       -0.4404
     14 C         141.4388  137.6736  161.8902 C.3     1  UNL1        0.2356
     15 C         140.2387  138.3282  161.2726 C.ar    1  UNL1        0.0272
     16 C         140.0335  139.0031  159.9489 C.ar    1  UNL1       -0.0047
     17 C         138.6924  139.5770  159.5996 C.ar    1  UNL1       -0.0210
     18 C         137.5565  139.4761  160.5741 C.ar    1  UNL1       -0.0040
     19 C         137.7618  138.8012  161.8979 C.ar    1  UNL1        0.0059
     20 C         139.1028  138.2273  162.2471 C.ar    1  UNL1        0.0751
     21 C         141.4339  144.7507  163.6892 C.3     1  UNL1        0.1115
     22 C         141.5068  143.7738  164.8252 C.ar    1  UNL1       -0.0091
     23 C         142.8349  143.2334  165.2656 C.ar    1  UNL1       -0.0023
     24 C         142.9077  142.2565  166.4015 C.ar    1  UNL1        0.0189
     25 C         141.6524  141.8201  167.0970 C.ar    1  UNL1        0.0862
     26 C         140.3243  142.3605  166.6566 C.ar    1  UNL1        0.0228
     27 C         140.2515  143.3374  165.5207 C.ar    1  UNL1        0.0694
     28 N         141.7253  140.8432  168.2330 N.ar    1  UNL1       -0.1886
     29 C         140.5648  140.3414  169.0402 C.ar    1  UNL1        0.2258
     30 N         141.0937  139.3847  170.0673 N.ar    1  UNL1       -0.1045
     31 N         142.5811  139.2951  169.8948 N.ar    1  UNL1       -0.0222
     32 N         142.9714  140.1965  168.7612 N.ar    1  UNL1       -0.0385
     33 C         138.9233  143.8778  165.0802 C.3     1  UNL1        0.4183
     34 F         137.5952  144.4183  164.6398 F       1  UNL1       -0.1659
     35 F         138.6389  142.5927  164.3609 F       1  UNL1       -0.1659
     36 F         139.2077  145.1629  165.7996 F       1  UNL1       -0.1659
@<TRIPOS>BOND
     1    11    12    2
     2    12    13    1
     3    13    14    1
     4    14    15    1
     5    15    16   ar
     6    16    17   ar
     7    17    10    1
     8    10     9    1
     9     9     1    1
    10     1     2    1
    11     2     3    1
    12     3     4    1
    13     4     5   am
    14     5     6    2
    15     5    21    1
    16    21    22    1
    17    22    23   ar
    18    23    24   ar
    19    24    25   ar
    20    25    28    1
    21    28    29   ar
    22    29    30   ar
    23    30    31   ar
    24    31    32   ar
    25    25    26   ar
    26    26    27   ar
    27    27    33    1
    28    33    34    1
    29    33    35    1
    30    33    36    1
    31     4     7    1
    32     7     8    1
    33    17    18   ar
    34    18    19   ar
    35    19    20   ar
    36    20    12    1
    37    20    15   ar
    38     8     1    1
    39    27    22   ar
    40    32    28   ar
@<TRIPOS>MOLECULE
*****
 36 40 0 0 0
SMALL
GASTEIGER

@<TRIPOS>ATOM
      1 N         140.5045  144.8213  162.3322 N.3     1  UNL1       -0.2695
      2 C         141.1400  144.4956  163.6513 C.3     1  UNL1        0.0939
      3 C         142.4758  143.8145  163.6925 C.3     1  UNL1        0.1107
      4 N         143.1762  143.4591  162.4146 N.am    1  UNL1       -0.2764
      5 C         144.5120  142.7781  162.4558 C.2     1  UNL1        0.2301
      6 O         145.2125  142.4227  161.1779 O.2     1  UNL1       -0.2745
      7 C         142.5408  143.7848  161.0955 C.3     1  UNL1        0.1107
      8 C         141.2050  144.4659  161.0542 C.3     1  UNL1        0.0939
      9 C         139.1687  145.5023  162.2910 C.3     1  UNL1        0.0769
     10 C         137.9256  144.7369  162.6357 C.3     1  UNL1        0.0437
     11 O         138.4283  138.1345  165.2410 O.2     1  UNL1       -0.2449
     12 C         138.2816  138.9243  163.9742 C.2     1  UNL1        0.3413
     13 O         138.1790  138.3580  162.5890 O.3     1  UNL1       -0.4404
     14 C         138.0457  139.5028  161.6290 C.3     1  UNL1        0.2356
     15 C         138.0661  140.7766  162.4208 C.ar    1  UNL1        0.0272
     16 C         137.9707  142.2158  162.0093 C.ar    1  UNL1       -0.0047
     17 C         138.0210  143.2975  163.0472 C.ar    1  UNL1       -0.0210
     18 C         138.1668  142.9400  164.4967 C.ar    1  UNL1       -0.0040
     19 C         138.2622  141.5008  164.9082 C.ar    1  UNL1        0.0059
     20 C         138.2118  140.4190  163.8703 C.ar    1  UNL1        0.0751
     21 C         145.1474  142.4524  163.7750 C.3     1  UNL1        0.1115
     22 C         144.3085  141.9276  164.9023 C.ar    1  UNL1       -0.0091
     23 C         143.9764  142.8141  166.0658 C.ar    1  UNL1       -0.0023
     24 C         143.1375  142.2893  167.1931 C.ar    1  UNL1        0.0189
     25 C         142.6307  140.8779  167.1569 C.ar    1  UNL1        0.0862
     26 C         142.9629  139.9914  165.9934 C.ar    1  UNL1        0.0228
     27 C         143.8018  140.5162  164.8661 C.ar    1  UNL1        0.0694
     28 N         141.7918  140.3531  168.2842 N.ar    1  UNL1       -0.1886
     29 C         142.2898  139.5739  169.4652 C.ar    1  UNL1        0.2258
     30 N         141.1135  139.2545  170.3394 N.ar    1  UNL1       -0.1045
     31 N         139.8884  139.8365  169.6986 N.ar    1  UNL1       -0.0222
     32 N         140.3076  140.5154  168.4285 N.ar    1  UNL1       -0.0385
     33 C         144.1340  139.6297  163.7026 C.3     1  UNL1        0.4183
     34 F         144.4661  138.7432  162.5391 F       1  UNL1       -0.1659
     35 F         145.4087  139.2199  164.3787 F       1  UNL1       -0.1659
     36 F         142.8593  140.0395  163.0265 F       1  UNL1       -0.1659
@<TRIPOS>BOND
     1    11    12    2
     2    12    13    1
     3    13    14    1
     4    14    15    1
     5    15    16   ar
     6    16    17   ar
     7    17    10    1
     8    10     9    1
     9     9     1    1
    10     1     2    1
    11     2     3    1
    12     3     4    1
    13     4     5   am
    14     5     6    2
    15     5    21    1
    16    21    22    1
    17    22    23   ar
    18    23    24   ar
    19    24    25   ar
    20    25    28    1
    21    28    29   ar
    22    29    30   ar
    23    30    31   ar
    24    31    32   ar
    25    25    26   ar
    26    26    27   ar
    27    27    33    1
    28    33    34    1
    29    33    35    1
    30    33    36    1
    31     4     7    1
    32     7     8    1
    33    17    18   ar
    34    18    19   ar
    35    19    20   ar
    36    20    12    1
    37    20    15   ar
    38     8     1    1
    39    27    22   ar
    40    32    28   ar
