@<TRIPOS>MOLECULE
*****
 24 26 0 0 0
SMALL
GASTEIGER

@<TRIPOS>ATOM
      1 C         140.4898  140.9618  165.5991 C.ar    1  UNL1       -0.0157
      2 C         139.7136  139.8166  165.0195 C.ar    1  UNL1        0.0050
      3 S         138.4417  140.3636  164.4424 S.2     1  UNL1       -0.0915
      4 C         138.4319  141.8470  164.6652 C.ar    1  UNL1        0.0288
      5 C         137.4339  142.9087  164.3095 C.ar    1  UNL1        0.0065
      6 C         137.7016  144.3402  164.6688 C.ar    1  UNL1        0.0005
      7 C         138.9674  144.7099  165.3837 C.ar    1  UNL1        0.0000
      8 C         139.9654  143.6482  165.7394 C.ar    1  UNL1        0.0002
      9 C         139.6977  142.2167  165.3801 C.ar    1  UNL1        0.0025
     10 C         141.8239  140.8686  166.2784 C.3     1  UNL1        0.0493
     11 C         141.8994  140.5535  167.7431 C.3     1  UNL1        0.0096
     12 C         143.8947  139.9174  165.0307 C.ar    1  UNL1        0.2210
     13 N         145.1533  140.1394  164.2455 N.ar    1  UNL1       -0.2104
     14 C         145.5998  141.5346  163.9229 C.ar    1  UNL1        0.1020
     15 C         144.7877  142.7078  164.3854 C.ar    1  UNL1        0.0206
     16 C         143.5290  142.4858  165.1706 C.ar    1  UNL1        0.0022
     17 C         143.0825  141.0906  165.4933 C.ar    1  UNL1        0.0347
     18 C         143.9767  137.8290  166.5741 C.3     1  UNL1        0.2542
     19 O         143.4482  138.5222  165.3533 O.3     1  UNL1       -0.4563
     20 C         140.1352  138.3771  165.0175 C.3     1  UNL1        0.0499
     21 C         139.7668  137.4893  163.8660 C.3     1  UNL1        0.0774
     22 N         140.3143  137.7694  162.4978 N.3     1  UNL1       -0.2700
     23 C         141.7969  137.7759  162.2702 C.3     1  UNL1        0.0897
     24 C         139.3792  138.0432  161.3574 C.3     1  UNL1        0.0897
@<TRIPOS>BOND
     1    18    19    1
     2    19    12    1
     3    12    13   ar
     4    13    14   ar
     5    14    15   ar
     6    15    16   ar
     7    16    17   ar
     8    17    10    1
     9    10    11    1
    10    10     1    1
    11     1     2   ar
    12     2    20    1
    13    20    21    1
    14    21    22    1
    15    22    23    1
    16    22    24    1
    17     2     3   ar
    18     3     4   ar
    19     4     5   ar
    20     5     6   ar
    21     6     7   ar
    22     7     8   ar
    23     8     9   ar
    24    17    12   ar
    25     9     1   ar
    26     9     4   ar
@<TRIPOS>MOLECULE
*****
 24 26 0 0 0
SMALL
GASTEIGER

@<TRIPOS>ATOM
      1 C         140.3738  140.0346  166.4695 C.ar    1  UNL1       -0.0157
      2 C         141.5372  139.1814  166.0588 C.ar    1  UNL1        0.0050
      3 S         142.7397  139.6334  166.8332 S.2     1  UNL1       -0.0915
      4 C         142.3195  140.7660  167.7225 C.ar    1  UNL1        0.0288
      5 C         143.0794  141.6035  168.7079 C.ar    1  UNL1        0.0065
      6 C         142.3772  142.6889  169.4685 C.ar    1  UNL1        0.0005
      7 C         140.9150  142.9368  169.2438 C.ar    1  UNL1        0.0000
      8 C         140.1550  142.0993  168.2584 C.ar    1  UNL1        0.0002
      9 C         140.8573  141.0139  167.4977 C.ar    1  UNL1        0.0025
     10 C         138.9729  139.9273  165.9442 C.3     1  UNL1        0.0493
     11 C         138.0005  138.9840  166.5884 C.3     1  UNL1        0.0096
     12 C         138.2503  140.1128  163.4556 C.ar    1  UNL1        0.2210
     13 N         137.8216  140.9488  162.2863 N.ar    1  UNL1       -0.2104
     14 C         137.6869  142.4352  162.4362 C.ar    1  UNL1        0.1020
     15 C         137.9808  143.0857  163.7555 C.ar    1  UNL1        0.0206
     16 C         138.4095  142.2497  164.9248 C.ar    1  UNL1        0.0022
     17 C         138.5442  140.7632  164.7749 C.ar    1  UNL1        0.0347
     18 C         138.4807  138.0162  161.9387 C.3     1  UNL1        0.2542
     19 O         138.3850  138.6265  163.3056 O.3     1  UNL1       -0.4563
     20 C         141.5039  138.0712  165.0507 C.3     1  UNL1        0.0499
     21 C         141.8646  138.3454  163.6208 C.3     1  UNL1        0.0774
     22 N         142.6043  139.5998  163.2612 N.3     1  UNL1       -0.2700
     23 C         141.8441  140.8445  162.9106 C.3     1  UNL1        0.0897
     24 C         144.1042  139.6095  163.2522 C.3     1  UNL1        0.0897
@<TRIPOS>BOND
     1    18    19    1
     2    19    12    1
     3    12    13   ar
     4    13    14   ar
     5    14    15   ar
     6    15    16   ar
     7    16    17   ar
     8    17    10    1
     9    10    11    1
    10    10     1    1
    11     1     2   ar
    12     2    20    1
    13    20    21    1
    14    21    22    1
    15    22    23    1
    16    22    24    1
    17     2     3   ar
    18     3     4   ar
    19     4     5   ar
    20     5     6   ar
    21     6     7   ar
    22     7     8   ar
    23     8     9   ar
    24    17    12   ar
    25     9     1   ar
    26     9     4   ar
@<TRIPOS>MOLECULE
*****
 24 26 0 0 0
SMALL
GASTEIGER

@<TRIPOS>ATOM
      1 C         139.3630  140.7150  165.7135 C.ar    1  UNL1       -0.0157
      2 C         140.4067  140.9769  166.7585 C.ar    1  UNL1        0.0050
      3 S         140.6234  142.4592  166.8358 S.2     1  UNL1       -0.0915
      4 C         139.7137  143.1133  165.8386 C.ar    1  UNL1        0.0288
      5 C         139.4940  144.5512  165.4725 C.ar    1  UNL1        0.0065
      6 C         138.4954  144.9112  164.4128 C.ar    1  UNL1        0.0005
      7 C         137.7164  143.8332  163.7191 C.ar    1  UNL1        0.0000
      8 C         137.9361  142.3953  164.0851 C.ar    1  UNL1        0.0002
      9 C         138.9347  142.0353  165.1449 C.ar    1  UNL1        0.0025
     10 C         138.8396  139.3690  165.3081 C.3     1  UNL1        0.0493
     11 C         138.1178  138.5132  166.3065 C.3     1  UNL1        0.0096
     12 C         140.2570  138.0779  163.5548 C.ar    1  UNL1        0.2210
     13 N         140.4552  137.5877  162.1512 N.ar    1  UNL1       -0.2104
     14 C         139.4342  137.8983  161.0970 C.ar    1  UNL1        0.1020
     15 C         138.2150  138.6991  161.4466 C.ar    1  UNL1        0.0206
     16 C         138.0168  139.1894  162.8503 C.ar    1  UNL1        0.0022
     17 C         139.0378  138.8788  163.9045 C.ar    1  UNL1        0.0347
     18 C         142.6147  138.4473  164.5818 C.3     1  UNL1        0.2542
     19 O         141.2780  137.7673  164.6089 O.3     1  UNL1       -0.4563
     20 C         141.1101  139.9389  167.5818 C.3     1  UNL1        0.0499
     21 C         142.5518  140.1253  167.9516 C.3     1  UNL1        0.0774
     22 N         142.9143  140.7266  169.2771 N.3     1  UNL1       -0.2700
     23 C         142.7540  139.9237  170.5339 C.3     1  UNL1        0.0897
     24 C         143.4372  142.1308  169.3458 C.3     1  UNL1        0.0897
@<TRIPOS>BOND
     1    18    19    1
     2    19    12    1
     3    12    13   ar
     4    13    14   ar
     5    14    15   ar
     6    15    16   ar
     7    16    17   ar
     8    17    10    1
     9    10    11    1
    10    10     1    1
    11     1     2   ar
    12     2    20    1
    13    20    21    1
    14    21    22    1
    15    22    23    1
    16    22    24    1
    17     2     3   ar
    18     3     4   ar
    19     4     5   ar
    20     5     6   ar
    21     6     7   ar
    22     7     8   ar
    23     8     9   ar
    24    17    12   ar
    25     9     1   ar
    26     9     4   ar
@<TRIPOS>MOLECULE
*****
 24 26 0 0 0
SMALL
GASTEIGER

@<TRIPOS>ATOM
      1 C         141.1968  141.5478  165.7368 C.ar    1  UNL1       -0.0157
      2 C         139.9255  141.9202  165.0333 C.ar    1  UNL1        0.0050
      3 S         140.1862  143.1601  164.2304 S.2     1  UNL1       -0.0915
      4 C         141.6186  143.5541  164.4378 C.ar    1  UNL1        0.0288
      5 C         142.4348  144.6914  163.8991 C.ar    1  UNL1        0.0065
      6 C         143.8757  144.8322  164.2915 C.ar    1  UNL1        0.0005
      7 C         144.5003  143.8357  165.2225 C.ar    1  UNL1        0.0000
      8 C         143.6841  142.6984  165.7612 C.ar    1  UNL1        0.0002
      9 C         142.2432  142.5575  165.3688 C.ar    1  UNL1        0.0025
     10 C         141.3882  140.3720  166.6484 C.3     1  UNL1        0.0493
     11 C         142.1045  139.1496  166.1555 C.3     1  UNL1        0.0096
     12 C         141.7634  140.8401  169.1762 C.ar    1  UNL1        0.2210
     13 N         141.2384  140.8865  170.5806 N.ar    1  UNL1       -0.2104
     14 C         139.8136  140.5113  170.8615 C.ar    1  UNL1        0.1020
     15 C         138.9135  140.0897  169.7381 C.ar    1  UNL1        0.0206
     16 C         139.4384  140.0432  168.3337 C.ar    1  UNL1        0.0022
     17 C         140.8634  140.4184  168.0527 C.ar    1  UNL1        0.0347
     18 C         143.8383  142.3239  169.6689 C.3     1  UNL1        0.2542
     19 O         143.1882  141.2153  168.8954 O.3     1  UNL1       -0.4563
     20 C         138.6223  141.1822  165.1177 C.3     1  UNL1        0.0499
     21 C         138.3040  140.1059  164.1226 C.3     1  UNL1        0.0774
     22 N         139.0118  138.7853  164.1940 N.3     1  UNL1       -0.2700
     23 C         138.7333  137.8456  165.3296 C.3     1  UNL1        0.0897
     24 C         139.9980  138.4045  163.1299 C.3     1  UNL1        0.0897
@<TRIPOS>BOND
     1    18    19    1
     2    19    12    1
     3    12    13   ar
     4    13    14   ar
     5    14    15   ar
     6    15    16   ar
     7    16    17   ar
     8    17    10    1
     9    10    11    1
    10    10     1    1
    11     1     2   ar
    12     2    20    1
    13    20    21    1
    14    21    22    1
    15    22    23    1
    16    22    24    1
    17     2     3   ar
    18     3     4   ar
    19     4     5   ar
    20     5     6   ar
    21     6     7   ar
    22     7     8   ar
    23     8     9   ar
    24    17    12   ar
    25     9     1   ar
    26     9     4   ar
@<TRIPOS>MOLECULE
*****
 24 26 0 0 0
SMALL
GASTEIGER

@<TRIPOS>ATOM
      1 C         139.5402  140.6664  165.1969 C.ar    1  UNL1       -0.0157
      2 C         138.7354  139.7457  164.3282 C.ar    1  UNL1        0.0050
      3 S         137.9277  140.5869  163.3848 S.2     1  UNL1       -0.0915
      4 C         138.2332  142.0274  163.6704 C.ar    1  UNL1        0.0288
      5 C         137.7328  143.3006  163.0554 C.ar    1  UNL1        0.0065
      6 C         138.2289  144.6230  163.5603 C.ar    1  UNL1        0.0005
      7 C         139.2255  144.6722  164.6803 C.ar    1  UNL1        0.0000
      8 C         139.7260  143.3990  165.2953 C.ar    1  UNL1        0.0002
      9 C         139.2298  142.0766  164.7904 C.ar    1  UNL1        0.0025
     10 C         140.4888  140.2501  166.2817 C.3     1  UNL1        0.0493
     11 C         141.7206  139.4651  165.9403 C.3     1  UNL1        0.0096
     12 C         141.0270  141.6744  168.3868 C.ar    1  UNL1        0.2210
     13 N         140.7439  142.0430  169.8130 N.ar    1  UNL1       -0.2104
     14 C         139.6395  141.3560  170.5602 C.ar    1  UNL1        0.1020
     15 C         138.8182  140.3003  169.8812 C.ar    1  UNL1        0.0206
     16 C         139.1013  139.9317  168.4550 C.ar    1  UNL1        0.0022
     17 C         140.2057  140.6187  167.7078 C.ar    1  UNL1        0.0347
     18 C         143.5049  142.4411  168.2375 C.3     1  UNL1        0.2542
     19 O         142.1315  142.3614  167.6397 O.3     1  UNL1       -0.4563
     20 C         138.7379  138.2471  164.3917 C.3     1  UNL1        0.0499
     21 C         138.8973  137.4434  163.1353 C.3     1  UNL1        0.0774
     22 N         139.9919  137.7769  162.1654 N.3     1  UNL1       -0.2700
     23 C         139.6511  138.2287  160.7762 C.3     1  UNL1        0.0897
     24 C         141.4272  137.6586  162.5847 C.3     1  UNL1        0.0897
@<TRIPOS>BOND
     1    18    19    1
     2    19    12    1
     3    12    13   ar
     4    13    14   ar
     5    14    15   ar
     6    15    16   ar
     7    16    17   ar
     8    17    10    1
     9    10    11    1
    10    10     1    1
    11     1     2   ar
    12     2    20    1
    13    20    21    1
    14    21    22    1
    15    22    23    1
    16    22    24    1
    17     2     3   ar
    18     3     4   ar
    19     4     5   ar
    20     5     6   ar
    21     6     7   ar
    22     7     8   ar
    23     8     9   ar
    24    17    12   ar
    25     9     1   ar
    26     9     4   ar
@<TRIPOS>MOLECULE
*****
 24 26 0 0 0
SMALL
GASTEIGER

@<TRIPOS>ATOM
      1 C         138.7590  140.4810  164.3732 C.ar    1  UNL1       -0.0157
      2 C         138.3350  140.0363  163.0049 C.ar    1  UNL1        0.0050
      3 S         138.1452  141.2597  162.1580 S.2     1  UNL1       -0.0915
      4 C         138.4519  142.4605  163.0030 C.ar    1  UNL1        0.0288
      5 C         138.4348  143.9300  162.7026 C.ar    1  UNL1        0.0065
      6 C         138.7970  144.9182  163.7714 C.ar    1  UNL1        0.0005
      7 C         139.1763  144.4369  165.1405 C.ar    1  UNL1        0.0000
      8 C         139.1935  142.9674  165.4408 C.ar    1  UNL1        0.0002
      9 C         138.8313  141.9792  164.3721 C.ar    1  UNL1        0.0025
     10 C         139.0582  139.5848  165.5383 C.3     1  UNL1        0.0493
     11 C         137.9353  138.9505  166.3045 C.3     1  UNL1        0.0096
     12 C         141.0380  139.9495  167.1806 C.ar    1  UNL1        0.2210
     13 N         142.4601  139.6874  167.5795 N.ar    1  UNL1       -0.2104
     14 C         143.3243  138.7986  166.7350 C.ar    1  UNL1        0.1020
     15 C         142.7665  138.1718  165.4916 C.ar    1  UNL1        0.0206
     16 C         141.3445  138.4339  165.0927 C.ar    1  UNL1        0.0022
     17 C         140.4802  139.3227  165.9372 C.ar    1  UNL1        0.0347
     18 C         139.6392  140.3397  169.3349 C.3     1  UNL1        0.2542
     19 O         140.1739  140.8383  168.0251 O.3     1  UNL1       -0.4563
     20 C         138.1357  138.6173  162.5612 C.3     1  UNL1        0.0499
     21 C         139.2976  137.8240  162.0410 C.3     1  UNL1        0.0774
     22 N         140.1985  138.4111  160.9952 N.3     1  UNL1       -0.2700
     23 C         139.6937  138.6106  159.5967 C.3     1  UNL1        0.0897
     24 C         141.6040  138.7986  161.3477 C.3     1  UNL1        0.0897
@<TRIPOS>BOND
     1    18    19    1
     2    19    12    1
     3    12    13   ar
     4    13    14   ar
     5    14    15   ar
     6    15    16   ar
     7    16    17   ar
     8    17    10    1
     9    10    11    1
    10    10     1    1
    11     1     2   ar
    12     2    20    1
    13    20    21    1
    14    21    22    1
    15    22    23    1
    16    22    24    1
    17     2     3   ar
    18     3     4   ar
    19     4     5   ar
    20     5     6   ar
    21     6     7   ar
    22     7     8   ar
    23     8     9   ar
    24    17    12   ar
    25     9     1   ar
    26     9     4   ar
@<TRIPOS>MOLECULE
*****
 24 26 0 0 0
SMALL
GASTEIGER

@<TRIPOS>ATOM
      1 C         140.8216  141.2507  165.8078 C.ar    1  UNL1       -0.0157
      2 C         140.3491  139.9651  165.1962 C.ar    1  UNL1        0.0050
      3 S         139.0864  140.2492  164.4380 S.2     1  UNL1       -0.0915
      4 C         138.7785  141.7103  164.5810 C.ar    1  UNL1        0.0288
      5 C         137.6602  142.5571  164.0497 C.ar    1  UNL1        0.0065
      6 C         137.6144  144.0228  164.3649 C.ar    1  UNL1        0.0005
      7 C         138.6869  144.6418  165.2115 C.ar    1  UNL1        0.0000
      8 C         139.8052  143.7950  165.7428 C.ar    1  UNL1        0.0002
      9 C         139.8510  142.3292  165.4276 C.ar    1  UNL1        0.0025
     10 C         142.0493  141.4268  166.6515 C.3     1  UNL1        0.0493
     11 C         143.2673  142.0858  166.0750 C.3     1  UNL1        0.0096
     12 C         141.5489  141.8305  169.1687 C.ar    1  UNL1        0.2210
     13 N         141.5586  141.3476  170.5888 N.ar    1  UNL1       -0.2104
     14 C         142.0786  139.9782  170.9119 C.ar    1  UNL1        0.1020
     15 C         142.5887  139.0916  169.8147 C.ar    1  UNL1        0.0206
     16 C         142.5790  139.5745  168.3946 C.ar    1  UNL1        0.0022
     17 C         142.0590  140.9440  168.0716 C.ar    1  UNL1        0.0347
     18 C         140.3950  144.0339  169.9194 C.3     1  UNL1        0.2542
     19 O         141.0289  143.1999  168.8458 O.3     1  UNL1       -0.4563
     20 C         141.0212  138.6299  165.3209 C.3     1  UNL1        0.0499
     21 C         142.3250  138.3785  164.6233 C.3     1  UNL1        0.0774
     22 N         142.3477  138.1224  163.1454 N.3     1  UNL1       -0.2700
     23 C         143.5867  138.4157  162.3524 C.3     1  UNL1        0.0897
     24 C         141.1314  137.5732  162.4607 C.3     1  UNL1        0.0897
@<TRIPOS>BOND
     1    18    19    1
     2    19    12    1
     3    12    13   ar
     4    13    14   ar
     5    14    15   ar
     6    15    16   ar
     7    16    17   ar
     8    17    10    1
     9    10    11    1
    10    10     1    1
    11     1     2   ar
    12     2    20    1
    13    20    21    1
    14    21    22    1
    15    22    23    1
    16    22    24    1
    17     2     3   ar
    18     3     4   ar
    19     4     5   ar
    20     5     6   ar
    21     6     7   ar
    22     7     8   ar
    23     8     9   ar
    24    17    12   ar
    25     9     1   ar
    26     9     4   ar
@<TRIPOS>MOLECULE
*****
 24 26 0 0 0
SMALL
GASTEIGER

@<TRIPOS>ATOM
      1 C         140.3661  139.5148  166.1654 C.ar    1  UNL1       -0.0157
      2 C         141.6081  138.8035  165.7165 C.ar    1  UNL1        0.0050
      3 S         142.7803  139.4398  166.4029 S.2     1  UNL1       -0.0915
      4 C         142.2627  140.5443  167.2759 C.ar    1  UNL1        0.0288
      5 C         142.9573  141.5139  168.1856 C.ar    1  UNL1        0.0065
      6 C         142.1599  142.5297  168.9484 C.ar    1  UNL1        0.0005
      7 C         140.6678  142.5761  168.8016 C.ar    1  UNL1        0.0000
      8 C         139.9732  141.6065  167.8920 C.ar    1  UNL1        0.0002
      9 C         140.7707  140.5907  167.1291 C.ar    1  UNL1        0.0025
     10 C         138.9654  139.2046  165.7274 C.3     1  UNL1        0.0493
     11 C         137.9812  138.6378  166.7075 C.3     1  UNL1        0.0096
     12 C         138.1468  140.8423  163.8841 C.ar    1  UNL1        0.2210
     13 N         137.7301  141.0988  162.4661 N.ar    1  UNL1       -0.2104
     14 C         137.7153  139.9743  161.4736 C.ar    1  UNL1        0.1020
     15 C         138.1172  138.5931  161.8990 C.ar    1  UNL1        0.0206
     16 C         138.5339  138.3366  163.3170 C.ar    1  UNL1        0.0022
     17 C         138.5487  139.4612  164.3096 C.ar    1  UNL1        0.0347
     18 C         139.0987  143.1227  164.6865 C.3     1  UNL1        0.2542
     19 O         138.1616  141.9669  164.8766 O.3     1  UNL1       -0.4563
     20 C         141.6675  137.6572  164.7509 C.3     1  UNL1        0.0499
     21 C         141.9318  137.9143  163.2969 C.3     1  UNL1        0.0774
     22 N         142.5312  139.2190  162.8628 N.3     1  UNL1       -0.2700
     23 C         144.0217  139.3826  162.8212 C.3     1  UNL1        0.0897
     24 C         141.6402  140.3600  162.4704 C.3     1  UNL1        0.0897
@<TRIPOS>BOND
     1    18    19    1
     2    19    12    1
     3    12    13   ar
     4    13    14   ar
     5    14    15   ar
     6    15    16   ar
     7    16    17   ar
     8    17    10    1
     9    10    11    1
    10    10     1    1
    11     1     2   ar
    12     2    20    1
    13    20    21    1
    14    21    22    1
    15    22    23    1
    16    22    24    1
    17     2     3   ar
    18     3     4   ar
    19     4     5   ar
    20     5     6   ar
    21     6     7   ar
    22     7     8   ar
    23     8     9   ar
    24    17    12   ar
    25     9     1   ar
    26     9     4   ar
@<TRIPOS>MOLECULE
*****
 24 26 0 0 0
SMALL
GASTEIGER

@<TRIPOS>ATOM
      1 C         141.1589  141.9580  165.3464 C.ar    1  UNL1       -0.0157
      2 C         142.2823  142.9232  165.1092 C.ar    1  UNL1        0.0050
      3 S         141.7436  144.0751  164.3137 S.2     1  UNL1       -0.0915
      4 C         140.2872  143.8218  164.0592 C.ar    1  UNL1        0.0288
      5 C         139.2434  144.6135  163.3288 C.ar    1  UNL1        0.0065
      6 C         137.8382  144.0968  163.2366 C.ar    1  UNL1        0.0005
      7 C         137.4769  142.7884  163.8748 C.ar    1  UNL1        0.0000
      8 C         138.5207  141.9966  164.6052 C.ar    1  UNL1        0.0002
      9 C         139.9258  142.5133  164.6974 C.ar    1  UNL1        0.0025
     10 C         141.2521  140.6644  166.1001 C.3     1  UNL1        0.0493
     11 C         141.8173  139.4461  165.4320 C.3     1  UNL1        0.0096
     12 C         139.4861  139.9040  167.8474 C.ar    1  UNL1        0.2210
     13 N         139.0142  139.8288  169.2693 N.ar    1  UNL1       -0.2104
     14 C         139.8364  140.4386  170.3656 C.ar    1  UNL1        0.1020
     15 C         141.1305  141.1238  170.0402 C.ar    1  UNL1        0.0206
     16 C         141.6024  141.1990  168.6184 C.ar    1  UNL1        0.0022
     17 C         140.7802  140.5892  167.5219 C.ar    1  UNL1        0.0347
     18 C         137.5295  138.3725  167.0884 C.3     1  UNL1        0.2542
     19 O         138.6639  139.2941  166.7511 O.3     1  UNL1       -0.4563
     20 C         143.6962  142.7643  165.5842 C.3     1  UNL1        0.0499
     21 C         144.8273  142.8066  164.5999 C.3     1  UNL1        0.0774
     22 N         144.9579  141.7326  163.5609 N.3     1  UNL1       -0.2700
     23 C         144.8729  142.0833  162.1049 C.3     1  UNL1        0.0897
     24 C         145.1734  140.3079  163.9779 C.3     1  UNL1        0.0897
@<TRIPOS>BOND
     1    18    19    1
     2    19    12    1
     3    12    13   ar
     4    13    14   ar
     5    14    15   ar
     6    15    16   ar
     7    16    17   ar
     8    17    10    1
     9    10    11    1
    10    10     1    1
    11     1     2   ar
    12     2    20    1
    13    20    21    1
    14    21    22    1
    15    22    23    1
    16    22    24    1
    17     2     3   ar
    18     3     4   ar
    19     4     5   ar
    20     5     6   ar
    21     6     7   ar
    22     7     8   ar
    23     8     9   ar
    24    17    12   ar
    25     9     1   ar
    26     9     4   ar
