@<TRIPOS>MOLECULE
*****
 40 46 0 0 0
SMALL
GASTEIGER

@<TRIPOS>ATOM
      1 C         138.3648  141.5367  164.4311 C.3     1  UNL1        0.0955
      2 C         138.6058  142.8271  165.1571 C.3     1  UNL1        0.0287
      3 C         138.5288  144.1296  164.4173 C.3     1  UNL1        0.0193
      4 C         138.2107  144.1419  162.9515 C.3     1  UNL1        0.0700
      5 C         137.9697  142.8517  162.2255 C.3     1  UNL1        0.0193
      6 C         138.0467  141.5490  162.9653 C.3     1  UNL1        0.0287
      7 C         138.2421  143.4034  163.3143 C.3     1  UNL1        0.1562
      8 O         138.3117  142.2256  163.9832 O.3     1  UNL1       -0.3571
      9 N         138.1337  145.4445  162.2116 N.3     1  UNL1       -0.2938
     10 H         137.6173  146.0916  162.8075 H       1  UNL1        0.1235
     11 C         139.3924  146.1475  161.7978 C.3     1  UNL1        0.0966
     12 C         140.7046  145.4218  161.8378 C.ar    1  UNL1        0.0082
     13 C         141.5956  145.5489  163.0378 C.ar    1  UNL1        0.0126
     14 C         142.9078  144.8232  163.0779 C.ar    1  UNL1        0.0943
     15 CL        143.7988  144.9504  164.2779 Cl      1  UNL1       -0.0790
     16 C         143.3290  143.9704  161.9181 C.ar    1  UNL1        0.1836
     17 C         142.4380  143.8433  160.7181 C.ar    1  UNL1        0.1834
     18 C         141.1258  144.5690  160.6780 C.ar    1  UNL1        0.0919
     19 CL        140.2348  144.4418  159.4780 Cl      1  UNL1       -0.0793
     20 O         142.8591  142.9905  159.5582 O.3     1  UNL1       -0.4675
     21 C         144.1713  142.2649  159.5983 C.3     1  UNL1        0.2527
     22 C         145.0623  142.3919  160.7982 C.3     1  UNL1        0.2527
     23 O         144.6412  143.2448  161.9582 O.3     1  UNL1       -0.4675
     24 C         138.4418  140.2341  165.1709 C.3     1  UNL1        0.0604
     25 O         138.8045  140.8798  170.2438 O.2     1  UNL1       -0.2670
     26 C         140.0382  140.2746  169.6423 C.ar    1  UNL1        0.2611
     27 C         141.2065  139.9281  170.5169 C.ar    1  UNL1        0.0623
     28 C         142.4402  139.3230  169.9154 C.ar    1  UNL1        0.0254
     29 C         142.5056  139.0643  168.4394 C.ar    1  UNL1        0.0972
     30 N         143.5936  138.4786  167.5770 N.ar    1  UNL1       -0.2400
     31 C         143.5136  138.2789  166.0925 C.ar    1  UNL1        0.1282
     32 C         142.2733  138.6756  165.3481 C.ar    1  UNL1        0.1588
     33 F         142.1934  138.4758  163.8636 F       1  UNL1       -0.2027
     34 C         141.1129  139.2721  166.0882 C.ar    1  UNL1        0.0500
     35 C         141.3373  139.4109  167.5648 C.ar    1  UNL1        0.0806
     36 N         140.1036  140.0160  168.1663 N.ar    1  UNL1       -0.2915
     37 C         139.1168  140.2512  167.0614 C.3     1  UNL1        0.1402
     38 C         139.7405  139.7915  165.7770 C.3     1  UNL1        0.1335
     39 O         140.0928  139.4243  164.3660 O.3     1  UNL1       -0.3806
     40 H         139.3500  139.6400  163.7807 H       1  UNL1        0.2108
@<TRIPOS>BOND
     1    25    26    2
     2    26    27   ar
     3    27    28   ar
     4    28    29   ar
     5    29    30   ar
     6    30    31   ar
     7    31    32   ar
     8    32    33    1
     9    32    34   ar
    10    34    35   ar
    11    35    36   ar
    12    36    37    1
    13    37    38    1
    14    38    39    1
    15    38    24    1
    16    24     1    1
    17     1     2    1
    18     2     3    1
    19     3     4    1
    20     4     9    1
    21     9    11    1
    22    11    12    1
    23    12    13   ar
    24    13    14   ar
    25    14    15    1
    26    14    16   ar
    27    16    17   ar
    28    17    18   ar
    29    18    19    1
    30    17    20    1
    31    20    21    1
    32    21    22    1
    33    22    23    1
    34     4     5    1
    35     5     6    1
    36     4     7    1
    37     7     8    1
    38    36    26   ar
    39     6     1    1
    40    35    29   ar
    41     8     1    1
    42    38    34    1
    43    18    12   ar
    44    23    16    1
    45    39    40    1
    46     9    10    1
@<TRIPOS>MOLECULE
*****
 40 46 0 0 0
SMALL
GASTEIGER

@<TRIPOS>ATOM
      1 C         138.4372  141.8558  164.4386 C.3     1  UNL1        0.0955
      2 C         138.0375  141.8790  162.9929 C.3     1  UNL1        0.0287
      3 C         138.0120  143.1775  162.2425 C.3     1  UNL1        0.0193
      4 C         138.3860  144.4530  162.9377 C.3     1  UNL1        0.0700
      5 C         138.7856  144.4298  164.3833 C.3     1  UNL1        0.0193
      6 C         138.8112  143.1313  165.1338 C.3     1  UNL1        0.0287
      7 C         138.4150  143.7658  163.3905 C.3     1  UNL1        0.1562
      8 O         138.4382  142.5916  164.0690 O.3     1  UNL1       -0.3571
      9 N         138.3604  145.7515  162.1873 N.3     1  UNL1       -0.2938
     10 H         137.9856  146.4532  162.8257 H       1  UNL1        0.1235
     11 C         139.6297  146.3155  161.6210 C.3     1  UNL1        0.0966
     12 C         140.5318  145.4488  160.7932 C.ar    1  UNL1        0.0082
     13 C         140.2671  145.2759  159.3269 C.ar    1  UNL1        0.0126
     14 C         141.1691  144.4092  158.4990 C.ar    1  UNL1        0.0943
     15 CL        140.9045  144.2363  157.0327 Cl      1  UNL1       -0.0790
     16 C         142.3357  143.7154  159.1375 C.ar    1  UNL1        0.1836
     17 C         142.6003  143.8883  160.6038 C.ar    1  UNL1        0.1834
     18 C         141.6984  144.7550  161.4316 C.ar    1  UNL1        0.0919
     19 CL        141.9630  144.9279  162.8979 Cl      1  UNL1       -0.0793
     20 O         143.7669  143.1946  161.2424 O.3     1  UNL1       -0.4675
     21 C         144.6689  142.3279  160.4145 C.3     1  UNL1        0.2527
     22 C         144.4043  142.1549  158.9483 C.3     1  UNL1        0.2527
     23 O         143.2377  142.8487  158.3097 O.3     1  UNL1       -0.4675
     24 C         138.4627  140.5573  165.1889 C.3     1  UNL1        0.0604
     25 O         138.8630  140.8654  170.2906 O.2     1  UNL1       -0.2670
     26 C         140.0788  140.2705  169.6442 C.ar    1  UNL1        0.2611
     27 C         141.2419  139.8399  170.4878 C.ar    1  UNL1        0.0623
     28 C         142.4577  139.2449  169.8414 C.ar    1  UNL1        0.0254
     29 C         142.5104  139.0805  168.3514 C.ar    1  UNL1        0.0972
     30 N         143.5798  138.5252  167.4468 N.ar    1  UNL1       -0.2400
     31 C         143.4886  138.4236  165.9530 C.ar    1  UNL1        0.1282
     32 C         142.2553  138.8976  165.2430 C.ar    1  UNL1        0.1588
     33 F         142.1641  138.7960  163.7492 F       1  UNL1       -0.2027
     34 C         141.1132  139.4733  166.0267 C.ar    1  UNL1        0.0500
     35 C         141.3473  139.5110  167.5078 C.ar    1  UNL1        0.0806
     36 N         140.1315  140.1060  168.1542 N.ar    1  UNL1       -0.2915
     37 C         139.1460  140.4360  167.0726 C.3     1  UNL1        0.1402
     38 C         139.7527  140.0450  165.7577 C.3     1  UNL1        0.1335
     39 O         140.0898  139.7610  164.3239 O.3     1  UNL1       -0.3806
     40 H         139.3500  140.0321  163.7580 H       1  UNL1        0.2108
@<TRIPOS>BOND
     1    25    26    2
     2    26    27   ar
     3    27    28   ar
     4    28    29   ar
     5    29    30   ar
     6    30    31   ar
     7    31    32   ar
     8    32    33    1
     9    32    34   ar
    10    34    35   ar
    11    35    36   ar
    12    36    37    1
    13    37    38    1
    14    38    39    1
    15    38    24    1
    16    24     1    1
    17     1     2    1
    18     2     3    1
    19     3     4    1
    20     4     9    1
    21     9    11    1
    22    11    12    1
    23    12    13   ar
    24    13    14   ar
    25    14    15    1
    26    14    16   ar
    27    16    17   ar
    28    17    18   ar
    29    18    19    1
    30    17    20    1
    31    20    21    1
    32    21    22    1
    33    22    23    1
    34     4     5    1
    35     5     6    1
    36     4     7    1
    37     7     8    1
    38    36    26   ar
    39     6     1    1
    40    35    29   ar
    41     8     1    1
    42    38    34    1
    43    18    12   ar
    44    23    16    1
    45    39    40    1
    46     9    10    1
@<TRIPOS>MOLECULE
*****
 40 46 0 0 0
SMALL
GASTEIGER

@<TRIPOS>ATOM
      1 C         138.4205  141.6597  164.5887 C.3     1  UNL1        0.0955
      2 C         139.4911  142.5182  165.1945 C.3     1  UNL1        0.0287
      3 C         140.4069  141.9503  166.2380 C.3     1  UNL1        0.0193
      4 C         140.2520  140.5240  166.6759 C.3     1  UNL1        0.0700
      5 C         139.1814  139.6656  166.0702 C.3     1  UNL1        0.0193
      6 C         138.2656  140.2334  165.0266 C.3     1  UNL1        0.0287
      7 C         139.7264  140.7908  166.1008 C.3     1  UNL1        0.1562
      8 O         138.8984  141.3042  165.1572 O.3     1  UNL1       -0.3571
      9 N         141.1677  139.9561  167.7194 N.3     1  UNL1       -0.2938
     10 H         140.6382  139.2411  168.2182 H       1  UNL1        0.1235
     11 C         142.4683  139.3282  167.3143 C.3     1  UNL1        0.0966
     12 C         142.9905  139.5172  165.9209 C.ar    1  UNL1        0.0082
     13 C         143.8998  140.6691  165.6106 C.ar    1  UNL1        0.0126
     14 C         144.4221  140.8581  164.2172 C.ar    1  UNL1        0.0943
     15 CL        145.3314  142.0100  163.9069 Cl      1  UNL1       -0.0790
     16 C         144.0351  139.8953  163.1341 C.ar    1  UNL1        0.1836
     17 C         143.1258  138.7433  163.4444 C.ar    1  UNL1        0.1834
     18 C         142.6036  138.5543  164.8378 C.ar    1  UNL1        0.0919
     19 CL        141.6943  137.4024  165.1481 Cl      1  UNL1       -0.0793
     20 O         142.7388  137.7804  162.3614 O.3     1  UNL1       -0.4675
     21 C         143.2611  137.9695  160.9680 C.3     1  UNL1        0.2527
     22 C         144.1703  139.1213  160.6577 C.3     1  UNL1        0.2527
     23 O         144.5574  140.0843  161.7408 O.3     1  UNL1       -0.4675
     24 C         137.5047  142.2276  163.5452 C.3     1  UNL1        0.0604
     25 O         140.3623  146.1535  161.9009 O.2     1  UNL1       -0.2670
     26 C         140.0691  145.1526  160.8228 C.ar    1  UNL1        0.2611
     27 C         140.6013  145.3658  159.4367 C.ar    1  UNL1        0.0623
     28 C         140.3081  144.3649  158.3586 C.ar    1  UNL1        0.0254
     29 C         139.4827  143.1509  158.6666 C.ar    1  UNL1        0.0972
     30 N         139.0380  142.0014  157.7998 N.ar    1  UNL1       -0.2400
     31 C         138.2027  140.8416  158.2549 C.ar    1  UNL1        0.1282
     32 C         137.7410  140.7633  159.6799 C.ar    1  UNL1        0.1588
     33 F         136.9057  139.6035  160.1349 F       1  UNL1       -0.2027
     34 C         138.1145  141.8448  160.6498 C.ar    1  UNL1        0.0500
     35 C         138.9506  142.9378  160.0527 C.ar    1  UNL1        0.0806
     36 N         139.2438  143.9386  161.1308 N.ar    1  UNL1       -0.2915
     37 C         138.5889  143.4642  162.3942 C.3     1  UNL1        0.1402
     38 C         137.8910  142.1702  162.0969 C.3     1  UNL1        0.1335
     39 O         137.1123  140.8881  162.1024 O.3     1  UNL1       -0.3806
     40 H         136.7576  140.7291  162.9911 H       1  UNL1        0.2108
@<TRIPOS>BOND
     1    25    26    2
     2    26    27   ar
     3    27    28   ar
     4    28    29   ar
     5    29    30   ar
     6    30    31   ar
     7    31    32   ar
     8    32    33    1
     9    32    34   ar
    10    34    35   ar
    11    35    36   ar
    12    36    37    1
    13    37    38    1
    14    38    39    1
    15    38    24    1
    16    24     1    1
    17     1     2    1
    18     2     3    1
    19     3     4    1
    20     4     9    1
    21     9    11    1
    22    11    12    1
    23    12    13   ar
    24    13    14   ar
    25    14    15    1
    26    14    16   ar
    27    16    17   ar
    28    17    18   ar
    29    18    19    1
    30    17    20    1
    31    20    21    1
    32    21    22    1
    33    22    23    1
    34     4     5    1
    35     5     6    1
    36     4     7    1
    37     7     8    1
    38    36    26   ar
    39     6     1    1
    40    35    29   ar
    41     8     1    1
    42    38    34    1
    43    18    12   ar
    44    23    16    1
    45    39    40    1
    46     9    10    1
@<TRIPOS>MOLECULE
*****
 40 46 0 0 0
SMALL
GASTEIGER

@<TRIPOS>ATOM
      1 C         137.8461  140.8439  161.7172 C.3     1  UNL1        0.0955
      2 C         137.5636  140.6761  163.1809 C.3     1  UNL1        0.0287
      3 C         137.5141  141.8774  164.0778 C.3     1  UNL1        0.0193
      4 C         137.7472  143.2466  163.5110 C.3     1  UNL1        0.0700
      5 C         138.0296  143.4144  162.0475 C.3     1  UNL1        0.0193
      6 C         138.0791  142.2130  161.1505 C.3     1  UNL1        0.0287
      7 C         137.7843  142.6182  162.9802 C.3     1  UNL1        0.1562
      8 O         137.8290  141.5319  162.1692 O.3     1  UNL1       -0.3571
      9 N         137.6977  144.4479  164.4079 N.3     1  UNL1       -0.2938
     10 H         136.9623  144.2739  165.0930 H       1  UNL1        0.1235
     11 C         138.9176  144.8601  165.1773 C.3     1  UNL1        0.0966
     12 C         140.2148  144.1358  164.9708 C.ar    1  UNL1        0.0082
     13 C         140.6173  143.0362  165.9083 C.ar    1  UNL1        0.0126
     14 C         141.9145  142.3119  165.7019 C.ar    1  UNL1        0.0943
     15 CL        142.3170  141.2123  166.6394 Cl      1  UNL1       -0.0790
     16 C         142.8092  142.6870  164.5579 C.ar    1  UNL1        0.1836
     17 C         142.4067  143.7866  163.6204 C.ar    1  UNL1        0.1834
     18 C         141.1095  144.5109  163.8268 C.ar    1  UNL1        0.0919
     19 CL        140.7070  145.6105  162.8892 Cl      1  UNL1       -0.0793
     20 O         143.3013  144.1618  162.4764 O.3     1  UNL1       -0.4675
     21 C         144.5985  143.4375  162.2699 C.3     1  UNL1        0.2527
     22 C         145.0011  142.3380  163.2074 C.3     1  UNL1        0.2527
     23 O         144.1064  141.9627  164.3515 O.3     1  UNL1       -0.4675
     24 C         137.8955  139.6426  160.8204 C.3     1  UNL1        0.0604
     25 O         141.7152  138.7411  164.1188 O.2     1  UNL1       -0.2670
     26 C         142.1180  138.5361  162.6885 C.ar    1  UNL1        0.2611
     27 C         143.5177  138.1105  162.3571 C.ar    1  UNL1        0.0623
     28 C         143.9204  137.9055  160.9268 C.ar    1  UNL1        0.0254
     29 C         142.9236  138.1261  159.8280 C.ar    1  UNL1        0.0972
     30 N         143.0447  137.9985  158.3315 N.ar    1  UNL1       -0.2400
     31 C         141.9445  138.2559  157.3449 C.ar    1  UNL1        0.1282
     32 C         140.5884  138.6782  157.8272 C.ar    1  UNL1        0.1588
     33 F         139.4882  138.9356  156.8406 F       1  UNL1       -0.2027
     34 C         140.3324  138.8431  159.2960 C.ar    1  UNL1        0.0500
     35 C         141.5239  138.5516  160.1594 C.ar    1  UNL1        0.0806
     36 N         141.1212  138.7566  161.5897 N.ar    1  UNL1       -0.2915
     37 C         139.6808  139.1748  161.6102 C.3     1  UNL1        0.1402
     38 C         139.1933  139.2282  160.1926 C.3     1  UNL1        0.1335
     39 O         138.4346  139.3682  158.9063 O.3     1  UNL1       -0.3806
     40 H         137.5240  139.6435  159.0963 H       1  UNL1        0.2108
@<TRIPOS>BOND
     1    25    26    2
     2    26    27   ar
     3    27    28   ar
     4    28    29   ar
     5    29    30   ar
     6    30    31   ar
     7    31    32   ar
     8    32    33    1
     9    32    34   ar
    10    34    35   ar
    11    35    36   ar
    12    36    37    1
    13    37    38    1
    14    38    39    1
    15    38    24    1
    16    24     1    1
    17     1     2    1
    18     2     3    1
    19     3     4    1
    20     4     9    1
    21     9    11    1
    22    11    12    1
    23    12    13   ar
    24    13    14   ar
    25    14    15    1
    26    14    16   ar
    27    16    17   ar
    28    17    18   ar
    29    18    19    1
    30    17    20    1
    31    20    21    1
    32    21    22    1
    33    22    23    1
    34     4     5    1
    35     5     6    1
    36     4     7    1
    37     7     8    1
    38    36    26   ar
    39     6     1    1
    40    35    29   ar
    41     8     1    1
    42    38    34    1
    43    18    12   ar
    44    23    16    1
    45    39    40    1
    46     9    10    1
@<TRIPOS>MOLECULE
*****
 40 46 0 0 0
SMALL
GASTEIGER

@<TRIPOS>ATOM
      1 C         137.8984  140.5861  162.1115 C.3     1  UNL1        0.0955
      2 C         137.9834  141.9471  161.4865 C.3     1  UNL1        0.0287
      3 C         137.9144  143.1734  162.3475 C.3     1  UNL1        0.0193
      4 C         137.7604  143.0388  163.8335 C.3     1  UNL1        0.0700
      5 C         137.6754  141.6779  164.4585 C.3     1  UNL1        0.0193
      6 C         137.7445  140.4515  163.5975 C.3     1  UNL1        0.0287
      7 C         137.7936  142.3378  163.4028 C.3     1  UNL1        0.1562
      8 O         137.8560  141.2290  162.6242 O.3     1  UNL1       -0.3571
      9 N         137.6914  144.2651  164.6946 N.3     1  UNL1       -0.2938
     10 H         137.0403  144.0570  165.4517 H       1  UNL1        0.1235
     11 C         138.9374  144.8056  165.3311 C.3     1  UNL1        0.0966
     12 C         140.2511  144.1152  165.1130 C.ar    1  UNL1        0.0082
     13 C         140.7205  143.0724  166.0837 C.ar    1  UNL1        0.0126
     14 C         142.0342  142.3820  165.8657 C.ar    1  UNL1        0.0943
     15 CL        142.5036  141.3392  166.8364 Cl      1  UNL1       -0.0790
     16 C         142.8785  142.7343  164.6770 C.ar    1  UNL1        0.1836
     17 C         142.4091  143.7771  163.7063 C.ar    1  UNL1        0.1834
     18 C         141.0954  144.4675  163.9243 C.ar    1  UNL1        0.0919
     19 CL        140.6260  145.5103  162.9536 Cl      1  UNL1       -0.0793
     20 O         143.2533  144.1295  162.5176 O.3     1  UNL1       -0.4675
     21 C         144.5670  143.4391  162.2996 C.3     1  UNL1        0.2527
     22 C         145.0365  142.3963  163.2702 C.3     1  UNL1        0.2527
     23 O         144.1922  142.0439  164.4590 O.3     1  UNL1       -0.4675
     24 C         137.9675  139.3598  161.2505 C.3     1  UNL1        0.0604
     25 O         138.0653  139.7502  156.1397 O.2     1  UNL1       -0.2670
     26 C         139.3608  139.2569  156.7127 C.ar    1  UNL1        0.2611
     27 C         140.5097  138.9370  155.8030 C.ar    1  UNL1        0.0623
     28 C         141.8052  138.4437  156.3760 C.ar    1  UNL1        0.0254
     29 C         141.9518  138.2703  157.8587 C.ar    1  UNL1        0.0972
     30 N         143.1121  137.8014  158.6979 N.ar    1  UNL1       -0.2400
     31 C         143.1103  137.6780  160.1928 C.ar    1  UNL1        0.1282
     32 C         141.8806  138.0364  160.9734 C.ar    1  UNL1        0.1588
     33 F         141.8788  137.9129  162.4683 F       1  UNL1       -0.2027
     34 C         140.6527  138.5181  160.2591 C.ar    1  UNL1        0.0500
     35 C         140.8028  138.5901  158.7684 C.ar    1  UNL1        0.0806
     36 N         139.5073  139.0834  158.1954 N.ar    1  UNL1       -0.2915
     37 C         138.5566  139.3163  159.3320 C.3     1  UNL1        0.1402
     38 C         139.2644  138.9669  160.6074 C.3     1  UNL1        0.1335
     39 O         139.7012  138.6996  162.0173 O.3     1  UNL1       -0.3806
     40 H         138.9722  138.9000  162.6251 H       1  UNL1        0.2108
@<TRIPOS>BOND
     1    25    26    2
     2    26    27   ar
     3    27    28   ar
     4    28    29   ar
     5    29    30   ar
     6    30    31   ar
     7    31    32   ar
     8    32    33    1
     9    32    34   ar
    10    34    35   ar
    11    35    36   ar
    12    36    37    1
    13    37    38    1
    14    38    39    1
    15    38    24    1
    16    24     1    1
    17     1     2    1
    18     2     3    1
    19     3     4    1
    20     4     9    1
    21     9    11    1
    22    11    12    1
    23    12    13   ar
    24    13    14   ar
    25    14    15    1
    26    14    16   ar
    27    16    17   ar
    28    17    18   ar
    29    18    19    1
    30    17    20    1
    31    20    21    1
    32    21    22    1
    33    22    23    1
    34     4     5    1
    35     5     6    1
    36     4     7    1
    37     7     8    1
    38    36    26   ar
    39     6     1    1
    40    35    29   ar
    41     8     1    1
    42    38    34    1
    43    18    12   ar
    44    23    16    1
    45    39    40    1
    46     9    10    1
@<TRIPOS>MOLECULE
*****
 40 46 0 0 0
SMALL
GASTEIGER

@<TRIPOS>ATOM
      1 C         138.7014  139.0441  164.1446 C.3     1  UNL1        0.0955
      2 C         138.0771  140.3625  163.7948 C.3     1  UNL1        0.0287
      3 C         137.5826  140.6119  162.4008 C.3     1  UNL1        0.0193
      4 C         137.7124  139.5429  161.3565 C.3     1  UNL1        0.0700
      5 C         138.3367  138.2246  161.7063 C.3     1  UNL1        0.0193
      6 C         138.8312  137.9752  163.1003 C.3     1  UNL1        0.0287
      7 C         137.9980  139.3599  162.1069 C.3     1  UNL1        0.1562
      8 O         138.4451  139.1344  163.3673 O.3     1  UNL1       -0.3571
      9 N         137.2179  139.7923  159.9625 N.3     1  UNL1       -0.2938
     10 H         136.3936  140.3874  160.0445 H       1  UNL1        0.1235
     11 C         138.1188  140.4372  158.9514 C.3     1  UNL1        0.0966
     12 C         139.2849  141.2644  159.4053 C.ar    1  UNL1        0.0082
     13 C         139.1147  142.7364  159.6384 C.ar    1  UNL1        0.0126
     14 C         140.2807  143.5636  160.0924 C.ar    1  UNL1        0.0943
     15 CL        140.1105  145.0356  160.3254 Cl      1  UNL1       -0.0790
     16 C         141.6169  142.9189  160.3133 C.ar    1  UNL1        0.1836
     17 C         141.7872  141.4470  160.0802 C.ar    1  UNL1        0.1834
     18 C         140.6212  140.6197  159.6262 C.ar    1  UNL1        0.0919
     19 CL        140.7914  139.1477  159.3932 Cl      1  UNL1       -0.0793
     20 O         143.1233  140.8022  160.3011 O.3     1  UNL1       -0.4675
     21 C         144.2893  141.6295  160.7550 C.3     1  UNL1        0.2527
     22 C         144.1192  143.1014  160.9881 C.3     1  UNL1        0.2527
     23 O         142.7829  143.7462  160.7672 O.3     1  UNL1       -0.4675
     24 C         139.1959  138.7948  165.5386 C.3     1  UNL1        0.0604
     25 O         138.1006  140.0921  170.3760 O.2     1  UNL1       -0.2670
     26 C         139.3447  140.7533  169.8613 C.ar    1  UNL1        0.2611
     27 C         140.1210  141.6829  170.7463 C.ar    1  UNL1        0.0623
     28 C         141.3651  142.3441  170.2317 C.ar    1  UNL1        0.0254
     29 C         141.8330  142.0758  168.8320 C.ar    1  UNL1        0.0972
     30 N         143.0226  142.5891  168.0627 N.ar    1  UNL1       -0.2400
     31 C         143.3659  142.2263  166.6484 C.ar    1  UNL1        0.1282
     32 C         142.4906  141.2780  165.8838 C.ar    1  UNL1        0.1588
     33 F         142.8340  140.9151  164.4694 F       1  UNL1       -0.2027
     34 C         141.2719  140.6927  166.5335 C.ar    1  UNL1        0.0500
     35 C         141.0568  141.1462  167.9470 C.ar    1  UNL1        0.0806
     36 N         139.8126  140.4850  168.4617 N.ar    1  UNL1       -0.2915
     37 C         139.2588  139.6228  167.3662 C.3     1  UNL1        0.1402
     38 C         140.1607  139.7512  166.1745 C.3     1  UNL1        0.1335
     39 O         140.8609  139.6797  164.8499 O.3     1  UNL1       -0.3806
     40 H         140.3755  139.0825  164.2594 H       1  UNL1        0.2108
@<TRIPOS>BOND
     1    25    26    2
     2    26    27   ar
     3    27    28   ar
     4    28    29   ar
     5    29    30   ar
     6    30    31   ar
     7    31    32   ar
     8    32    33    1
     9    32    34   ar
    10    34    35   ar
    11    35    36   ar
    12    36    37    1
    13    37    38    1
    14    38    39    1
    15    38    24    1
    16    24     1    1
    17     1     2    1
    18     2     3    1
    19     3     4    1
    20     4     9    1
    21     9    11    1
    22    11    12    1
    23    12    13   ar
    24    13    14   ar
    25    14    15    1
    26    14    16   ar
    27    16    17   ar
    28    17    18   ar
    29    18    19    1
    30    17    20    1
    31    20    21    1
    32    21    22    1
    33    22    23    1
    34     4     5    1
    35     5     6    1
    36     4     7    1
    37     7     8    1
    38    36    26   ar
    39     6     1    1
    40    35    29   ar
    41     8     1    1
    42    38    34    1
    43    18    12   ar
    44    23    16    1
    45    39    40    1
    46     9    10    1
@<TRIPOS>MOLECULE
*****
 40 46 0 0 0
SMALL
GASTEIGER

@<TRIPOS>ATOM
      1 C         138.5106  138.4338  163.1430 C.3     1  UNL1        0.0955
      2 C         138.2210  139.8556  163.5236 C.3     1  UNL1        0.0287
      3 C         138.2482  140.2663  164.9660 C.3     1  UNL1        0.0193
      4 C         138.5649  139.2553  166.0279 C.3     1  UNL1        0.0700
      5 C         138.8545  137.8336  165.6473 C.3     1  UNL1        0.0193
      6 C         138.8273  137.4227  164.2049 C.3     1  UNL1        0.0287
      7 C         138.5618  138.9830  165.2507 C.3     1  UNL1        0.1562
      8 O         138.5372  138.6116  163.9465 O.3     1  UNL1       -0.3571
      9 N         138.5921  139.6660  167.4703 N.3     1  UNL1       -0.2938
     10 H         138.4037  138.8271  168.0190 H       1  UNL1        0.1235
     11 C         139.8260  140.2934  168.0482 C.3     1  UNL1        0.0966
     12 C         141.0390  140.4928  167.1887 C.ar    1  UNL1        0.0082
     13 C         142.0016  139.3622  166.9761 C.ar    1  UNL1        0.0126
     14 C         143.2146  139.5616  166.1165 C.ar    1  UNL1        0.0943
     15 CL        144.1772  138.4310  165.9039 Cl      1  UNL1       -0.0790
     16 C         143.4651  140.8915  165.4696 C.ar    1  UNL1        0.1836
     17 C         142.5025  142.0221  165.6822 C.ar    1  UNL1        0.1834
     18 C         141.2895  141.8227  166.5417 C.ar    1  UNL1        0.0919
     19 CL        140.3269  142.9533  166.7543 Cl      1  UNL1       -0.0793
     20 O         142.7529  143.3520  165.0353 O.3     1  UNL1       -0.4675
     21 C         143.9659  143.5514  164.1758 C.3     1  UNL1        0.2527
     22 C         144.9285  142.4209  163.9632 C.3     1  UNL1        0.2527
     23 O         144.6781  141.0908  164.6101 O.3     1  UNL1       -0.4675
     24 C         138.4834  138.0230  161.7006 C.3     1  UNL1        0.0604
     25 O         137.0473  140.6702  157.5518 O.2     1  UNL1       -0.2670
     26 C         138.5287  140.4443  157.6166 C.ar    1  UNL1        0.2611
     27 C         139.4168  140.9768  156.5314 C.ar    1  UNL1        0.0623
     28 C         140.8983  140.7508  156.5961 C.ar    1  UNL1        0.0254
     29 C         141.4917  139.9923  157.7461 C.ar    1  UNL1        0.0972
     30 N         142.9165  139.6215  158.0668 N.ar    1  UNL1       -0.2400
     31 C         143.3636  138.8487  159.2721 C.ar    1  UNL1        0.1282
     32 C         142.3552  138.3785  160.2781 C.ar    1  UNL1        0.1588
     33 F         142.8024  137.6056  161.4833 F       1  UNL1       -0.2027
     34 C         140.8996  138.6811  160.0787 C.ar    1  UNL1        0.0500
     35 C         140.6036  139.4598  158.8313 C.ar    1  UNL1        0.0806
     36 N         139.1222  139.6858  158.7666 N.ar    1  UNL1       -0.2915
     37 C         138.5026  139.0467  159.9739 C.3     1  UNL1        0.1402
     38 C         139.6011  138.4258  160.7849 C.3     1  UNL1        0.1335
     39 O         140.4660  137.7206  161.7873 O.3     1  UNL1       -0.3806
     40 H         139.9118  137.3669  162.5005 H       1  UNL1        0.2108
@<TRIPOS>BOND
     1    25    26    2
     2    26    27   ar
     3    27    28   ar
     4    28    29   ar
     5    29    30   ar
     6    30    31   ar
     7    31    32   ar
     8    32    33    1
     9    32    34   ar
    10    34    35   ar
    11    35    36   ar
    12    36    37    1
    13    37    38    1
    14    38    39    1
    15    38    24    1
    16    24     1    1
    17     1     2    1
    18     2     3    1
    19     3     4    1
    20     4     9    1
    21     9    11    1
    22    11    12    1
    23    12    13   ar
    24    13    14   ar
    25    14    15    1
    26    14    16   ar
    27    16    17   ar
    28    17    18   ar
    29    18    19    1
    30    17    20    1
    31    20    21    1
    32    21    22    1
    33    22    23    1
    34     4     5    1
    35     5     6    1
    36     4     7    1
    37     7     8    1
    38    36    26   ar
    39     6     1    1
    40    35    29   ar
    41     8     1    1
    42    38    34    1
    43    18    12   ar
    44    23    16    1
    45    39    40    1
    46     9    10    1
@<TRIPOS>MOLECULE
*****
 40 46 0 0 0
SMALL
GASTEIGER

@<TRIPOS>ATOM
      1 C         138.5599  138.7407  164.4418 C.3     1  UNL1        0.0955
      2 C         138.0178  140.1198  164.2089 C.3     1  UNL1        0.0287
      3 C         137.6901  140.5716  162.8166 C.3     1  UNL1        0.0193
      4 C         137.9045  139.6444  161.6572 C.3     1  UNL1        0.0700
      5 C         138.4465  138.2653  161.8901 C.3     1  UNL1        0.0193
      6 C         138.7743  137.8134  163.2824 C.3     1  UNL1        0.0287
      7 C         138.0987  139.3520  162.4021 C.3     1  UNL1        0.1562
      8 O         138.3950  138.9434  163.6610 O.3     1  UNL1       -0.3571
      9 N         137.5768  140.0962  160.2649 N.3     1  UNL1       -0.2938
     10 H         136.9417  140.8893  160.3545 H       1  UNL1        0.1235
     11 C         138.6752  140.5236  159.3372 C.3     1  UNL1        0.0966
     12 C         140.0283  140.8680  159.8853 C.ar    1  UNL1        0.0082
     13 C         141.1566  139.8864  159.7692 C.ar    1  UNL1        0.0126
     14 C         142.5097  140.2308  160.3173 C.ar    1  UNL1        0.0943
     15 CL        143.6380  139.2492  160.2012 Cl      1  UNL1       -0.0790
     16 C         142.7346  141.5568  160.9815 C.ar    1  UNL1        0.1836
     17 C         141.6064  142.5384  161.0976 C.ar    1  UNL1        0.1834
     18 C         140.2532  142.1940  160.5495 C.ar    1  UNL1        0.0919
     19 CL        139.1250  143.1756  160.6656 Cl      1  UNL1       -0.0793
     20 O         141.8312  143.8644  161.7617 O.3     1  UNL1       -0.4675
     21 C         143.1843  144.2088  162.3098 C.3     1  UNL1        0.2527
     22 C         144.3126  143.2273  162.1938 C.3     1  UNL1        0.2527
     23 O         144.0878  141.9012  161.5296 O.3     1  UNL1       -0.4675
     24 C         138.8876  138.2888  165.8341 C.3     1  UNL1        0.0604
     25 O         143.2241  140.6121  164.3920 O.2     1  UNL1       -0.2670
     26 C         142.7519  141.0463  165.7479 C.ar    1  UNL1        0.2611
     27 C         143.5359  142.0614  166.5256 C.ar    1  UNL1        0.0623
     28 C         143.0637  142.4955  167.8815 C.ar    1  UNL1        0.0254
     29 C         141.8075  141.9145  168.4598 C.ar    1  UNL1        0.0972
     30 N         141.1081  142.1585  169.7720 N.ar    1  UNL1       -0.2400
     31 C         139.8400  141.4932  170.2183 C.ar    1  UNL1        0.1282
     32 C         139.1646  140.4925  169.3281 C.ar    1  UNL1        0.1588
     33 F         137.8965  139.8272  169.7744 F       1  UNL1       -0.2027
     34 C         139.7574  140.1571  167.9916 C.ar    1  UNL1        0.0500
     35 C         141.0235  140.8994  167.6821 C.ar    1  UNL1        0.0806
     36 N         141.4957  140.4653  166.3262 N.ar    1  UNL1       -0.2915
     37 C         140.5213  139.4547  165.7977 C.3     1  UNL1        0.1402
     38 C         139.4470  139.2642  166.8270 C.3     1  UNL1        0.1335
     39 O         138.2557  138.8698  167.6487 O.3     1  UNL1       -0.3806
     40 H         137.7323  138.2122  167.1645 H       1  UNL1        0.2108
@<TRIPOS>BOND
     1    25    26    2
     2    26    27   ar
     3    27    28   ar
     4    28    29   ar
     5    29    30   ar
     6    30    31   ar
     7    31    32   ar
     8    32    33    1
     9    32    34   ar
    10    34    35   ar
    11    35    36   ar
    12    36    37    1
    13    37    38    1
    14    38    39    1
    15    38    24    1
    16    24     1    1
    17     1     2    1
    18     2     3    1
    19     3     4    1
    20     4     9    1
    21     9    11    1
    22    11    12    1
    23    12    13   ar
    24    13    14   ar
    25    14    15    1
    26    14    16   ar
    27    16    17   ar
    28    17    18   ar
    29    18    19    1
    30    17    20    1
    31    20    21    1
    32    21    22    1
    33    22    23    1
    34     4     5    1
    35     5     6    1
    36     4     7    1
    37     7     8    1
    38    36    26   ar
    39     6     1    1
    40    35    29   ar
    41     8     1    1
    42    38    34    1
    43    18    12   ar
    44    23    16    1
    45    39    40    1
    46     9    10    1
@<TRIPOS>MOLECULE
*****
 40 46 0 0 0
SMALL
GASTEIGER

@<TRIPOS>ATOM
      1 C         143.6371  139.5729  163.7298 C.3     1  UNL1        0.0955
      2 C         144.6048  140.7190  163.7475 C.3     1  UNL1        0.0287
      3 C         144.8761  141.4910  162.4903 C.3     1  UNL1        0.0193
      4 C         144.1797  141.1170  161.2155 C.3     1  UNL1        0.0700
      5 C         143.2121  139.9709  161.1979 C.3     1  UNL1        0.0193
      6 C         142.9408  139.1989  162.4550 C.3     1  UNL1        0.0287
      7 C         143.9987  140.6644  161.8792 C.3     1  UNL1        0.1562
      8 O         143.7535  139.9664  163.0160 O.3     1  UNL1       -0.3571
      9 N         144.4509  141.8889  159.9583 N.3     1  UNL1       -0.2938
     10 H         144.3564  141.2324  159.1834 H       1  UNL1        0.1235
     11 C         143.6127  143.0851  159.6172 C.3     1  UNL1        0.0966
     12 C         142.2174  143.2013  160.1556 C.ar    1  UNL1        0.0082
     13 C         141.0666  142.6216  159.3878 C.ar    1  UNL1        0.0126
     14 C         139.6713  142.7378  159.9261 C.ar    1  UNL1        0.0943
     15 CL        138.5205  142.1582  159.1583 Cl      1  UNL1       -0.0790
     16 C         139.4269  143.4337  161.2322 C.ar    1  UNL1        0.1836
     17 C         140.5777  144.0133  162.0000 C.ar    1  UNL1        0.1834
     18 C         141.9730  143.8972  161.4617 C.ar    1  UNL1        0.0919
     19 CL        143.1238  144.4768  162.2296 Cl      1  UNL1       -0.0793
     20 O         140.3334  144.7092  163.3062 O.3     1  UNL1       -0.4675
     21 C         138.9381  144.8254  163.8445 C.3     1  UNL1        0.2527
     22 C         137.7873  144.2458  163.0768 C.3     1  UNL1        0.2527
     23 O         138.0316  143.5499  161.7705 O.3     1  UNL1       -0.4675
     24 C         143.3659  138.8010  164.9870 C.3     1  UNL1        0.0604
     25 O         143.3890  141.5114  169.3385 O.2     1  UNL1       -0.2670
     26 C         142.0300  140.9828  168.9869 C.ar    1  UNL1        0.2611
     27 C         140.8593  141.2706  169.8794 C.ar    1  UNL1        0.0623
     28 C         139.5003  140.7420  169.5277 C.ar    1  UNL1        0.0254
     29 C         139.3120  139.9256  168.2835 C.ar    1  UNL1        0.0972
     30 N         138.0868  139.2782  167.6917 N.ar    1  UNL1       -0.2400
     31 C         138.0522  138.4808  166.4217 C.ar    1  UNL1        0.1282
     32 C         139.3099  138.2757  165.6304 C.ar    1  UNL1        0.1588
     33 F         139.2753  137.4784  164.3604 F       1  UNL1       -0.2027
     34 C         140.6022  138.8681  166.1091 C.ar    1  UNL1        0.0500
     35 C         140.4827  139.6378  167.3910 C.ar    1  UNL1        0.0806
     36 N         141.8417  140.1664  167.7427 N.ar    1  UNL1       -0.2915
     37 C         142.8011  139.7234  166.6781 C.3     1  UNL1        0.1402
     38 C         142.0350  138.9210  165.6685 C.3     1  UNL1        0.1335
     39 O         141.5472  138.0936  164.5164 O.3     1  UNL1       -0.3806
     40 H         142.2892  137.8946  163.9241 H       1  UNL1        0.2108
@<TRIPOS>BOND
     1    25    26    2
     2    26    27   ar
     3    27    28   ar
     4    28    29   ar
     5    29    30   ar
     6    30    31   ar
     7    31    32   ar
     8    32    33    1
     9    32    34   ar
    10    34    35   ar
    11    35    36   ar
    12    36    37    1
    13    37    38    1
    14    38    39    1
    15    38    24    1
    16    24     1    1
    17     1     2    1
    18     2     3    1
    19     3     4    1
    20     4     9    1
    21     9    11    1
    22    11    12    1
    23    12    13   ar
    24    13    14   ar
    25    14    15    1
    26    14    16   ar
    27    16    17   ar
    28    17    18   ar
    29    18    19    1
    30    17    20    1
    31    20    21    1
    32    21    22    1
    33    22    23    1
    34     4     5    1
    35     5     6    1
    36     4     7    1
    37     7     8    1
    38    36    26   ar
    39     6     1    1
    40    35    29   ar
    41     8     1    1
    42    38    34    1
    43    18    12   ar
    44    23    16    1
    45    39    40    1
    46     9    10    1
